.* MVS 3.8J PUBLIC DOMAIN
         PRINT OFF
         MACRO
&NAME    BNGHJN &LABEL,&HJN
         LCLA  &K
         LCLC  &HJA,&HJB,&HJC
&HJC     SETC  'PTF NO.'
&K       SETA  K'&SYSPARM
         AIF   (&K LT 4).CODE
&HJA     SETC  '&SYSPARM'(1,4)
         AIF   (&K LT 8).CODE
&HJB     SETC  '&SYSPARM'(5,4)
         AIF   (&K LT 15).CODE
&HJC     SETC  '&SYSPARM'(9,7)
.CODE    ANOP
         AIF   ('&LABEL' EQ '').NOBRNCH
         B     &LABEL .                 BR AROUND CONSTANTS
         SPACE 2
.NOBRNCH ANOP
         AIF   ('&NAME' EQ '').NOLABEL
         DC    C'&NAME' .              MODULE IDENTIFIER
.NOLABEL ANOP
         AIF   ('&HJA' EQ '').NEXT
         DC    X'&HJA' .                DATE OF MODIFICATION
.NEXT    ANOP
         AIF   ('HJB' EQ '').DATE
         AIF   ('&HJN' NE 'HJN').DATE
         DC    X'&HJB' .                HJN OF MODIFICATION
.DATE    ANOP
         DC    C'&HJC' .                PTF LEVEL
.NOPTF   ANOP
         AIF   ('&LABEL' EQ '').NOLBL
         SPACE 2
&LABEL   DS    0H
.NOLBL   ANOP
         MEND
         PRINT ON
***********************************************************************
*                                                                     *
* MODULE NAME = BNGC3270                                              *
*                                                                     *
* DESCRIPTIVE NAME = CICS DEMF 3270 DISPLAY MODULE                    *
*                                                                     *
*                                                                     *
* STATUS = RELEASE 1, LEVEL 1                                         *
*                                                                     *
* FUNCTION = 1) RECEIVES CONTROL FROM BNGCDISP;                       *
*            2) HANDLES 3270 DISPLAY TERMINAL ERROR INFORMATION       *
*               REQUEST AND BITS PROMPTER REQUEST;                    *
*            3) ACCESSES SYS1.DEMFLOG DATA FILE AND COLLECTS THE      *
*               REQUESTED 3270 ERROR INFORMATION FROM IT;             *
*            4) FORMS OUTPUT MESSAGE WITH DISPLAY FORMAT AND WRITES   *
*               IT TO THE 3270 DISPLAY TERMINAL; (ERR INFO AND SOME   *
*               OF DISPLAY MESSAGES)                                  *
*            5) RETURNS CONTROL TO CICS.
*                                                                     *
* NOTES = NONE                                                        *
*                                                                     *
*    DEPENDENCIES =                                                   *
*                                                                     *
*    THE FOLLOWING ARE CICS TABLES/CONTROL BLOCKS AND THEIR LABELS    *
*    USED BY DEMF CICS MODULES (BNGCDISP,BNGC3270,BNGCLOCL,BNGCRMOT   *
*    BNGCMENU) :                                                      *
*                                                                     *
*    CICS TABLE AND                                                   *
*    CONTROL BLOCKS                  LABELS USED                      *
*    ----------------------          -----------                      *
*                                                                     *
*    COMMON SYSTEM AREA              CSATCTBA                         *
*    (CSA)                                                            *
*                                                                     *
*    TERMINAL CONTROL TABLE          TCTTEDA                          *
*    TERMINAL ENTRY (TCTTE)          TCTTETM                          *
*                                    TCTTELT                          *
*                                    TCTTETI                          *
*                                    TCTTECLT                         *
*                                    TCTTETEL                         *
*                                    TCTTETT                          *
*                                    TCTTEGU                          *
*                                    TCTTETA                          *
*                                                                     *
*    TERMINAL CONTROL TABLE          TCTLELF                          *
*    LINE ENTRY (TCTLE)              TCTLEFAA                         *
*                                    TCTLEPI                          *
*                                    TCTLEMFP                         *
*                                    TCTLEPA                          *
*                                    TCTLEDCB                         *
*                                    TCTLERLN                         *
*                                                                     *
*    TERMINAL INPUT/OUTPUT AREA      TIOADBA                          *
*    (TIOA)                          TIOATDL                          *
*                                                                     *
*    TASK CONTROL AREA               TCAFCAAA                         *
*    (TCA)                           TCAFCAA                          *
*                                    TCAPCPI                          *
*                                    TCASCSA                          *
*                                                                     *
*    FILE INPUT/OUTPUT AREA          FIOADBA                          *
*    (FIOA)                                                           *
*                                                                     *
*    RESTRICTIONS = NONE                                              *
*                                                                     *
*    REGISTER CONVENTIONS = R12 ADDRESS OF TCA                        *
*                           R13 ADDRESS OF CSA                        *
*                                                                     *
*    PATCH LABEL = PATCH                                       @OX21950
*                                                                     *
* MODULE TYPE = COCS DISPLAY                                          *
*                                                                     *
*    PROCESSOR = ASSEMBLER H                                          *
*                                                                     *
*    MODULE SIZE = 6976 DECIMAL BYTES                                 *
*                                                                     *
*    ATTRIBUTES = QUASI-REENTRANT                                     *
*                                                                     *
* ENTRY POINT = BNGC3270                                              *
*                                                                     *
*    PURPOSE = SEE FUNCTION                                           *
*                                                                     *
*    LINKAGE = R1  LOADED WITH THE PARAM LIST POINTER                 *
*              R14 LOADED WITH THE RETURN ADDR (USED BY SUBROUTINE)   *
*              R15 LOADED WITH ENTRY POINT                            *
*                                                                     *
* INPUT = PARAM LIST ITEMS USED ARE : INPUT TIOA AT BEGINNING OF PGM  *
*                                                                     *
* OUTPUT = PARAM LIST ITEMS USED ARE : OUTPUT TIOA AT LABEL - GETTIOA *
*                                                                     *
* EXIT-NORMAL = REGISTER 15 RETURN CODE RETURNED TO CALLER :          *
*               00 - OPERATION PERFORMED AS REQUESTED                 *
*                                                                     *
* EXIT-ERROR  = NONE                                                  *
*                                                                     *
* EXTERNAL REFERENCE = NONE                                           *
*                                                                     *
*    ROUTINES = LOCATE ROUTINE                                        *
*               GETTIOA ROUTINE (GET TERMINAL OUTPUT AREA)            *
*               BUOBR ROUTINE (BLOW-UP OBR ROUTINE)                   *
*               BUMDR ROUTINE (BLOW-UP MDR ROUTINE)                   *
*                                                                     *
*    DATA AREAS =  TWA (300 BYTES)                                    *
*                                                                     *
*    CONTROL BLOCK = DFHCSADS, DFHTCTLE, DFHTCTTE, DFHTCADS,          *
*                    DFHTIOA, DFHFIOA                                 *
*                                                                     *
* TABLES = CALENDAR - CONVERT JULIAN DATE TO GREGORIAN DATE TABLE     *
*          LEAPTBL  - LEAP YEAR CALCULATION TABLE                     *
*          CCWTABL  - CONVERT 270X COMMAND CODE INTO ENGLISH          *
*          CSWTABL  - CONVERT LOCAL 327X STATUS OR 270X LINE STATUS   *
*                     INTO ENGLISH                                    *
*          SENSTABL - CONVERT 270X LINE SENSE CODE INTO ENGLISH       *
*          STATSTBL - CONVERT REMOTE 327X STATUS CODE INTO ENGLISH    *
*          SENS3272 - CONVERT LOCAL 327X SENSE CODE INTO ENGLISH      *
*          CCW3272  - CONVERT LOCAL 327X COMMAND CODE INTO ENGLISH    *
*          TPOPTBL  - CONVERT BTAM TP OP CODE INTO ENGLISH            *
*          CICSPTOP - CONVERT TCAM TP OP CODE INTO ENGLISH            *
*          HXTOEB   - HEX CHARS TO EBCDIC CHARS TABLE                 *
*          EBTOHX   - EBCDIC CHARS TO HEX CHARS TABLE                 *
*                                                                     *
* MACROS = DCBD, DFHPC, DFHSC, DFHTC, DFHPC                           *
*                                                                     *
* CHANGE ACTIVITIES AS FOLLOWS:                                       *
* CHANGE 01  11/15/77  PROLOGUE ADDED                                 *
* CHANGE 02  02/27/78  BNGHJN MACRO ADDED                             *
*A110800,246000                                                @OZ30480
*A192000,374800,414000                                         @OZ31885
*C384000-384800                                                @OX21950
*A472800                                                       @OX21950
*C132400,167600,192800,346400                                  @OX22095
*A160000,161200,354800                                         @OX22095
*DUMMY APAR TO CORRECT PREREQ STRINGS ON PREVIOUS PTF'S        @OZ36693
*A230000                                                       @OZ38643
*A302000                                                       @OZ40264
*A149405-149465                                                @OX25492
*A203625-203875                                                @OX27899
***********************************************************************
BNGC3270 TITLE 'DISPLAY 3270 MDR AND OBR ENTRIES'
R1       EQU   1
BASE1    EQU   2                   1ST PROGRAM BASE REG.
BASE2    EQU   3                   2ND PROGRAM BASE REG.
TCTTEAR  EQU   4                   TCT TERML ENTRY REG.
TIOABAR  EQU   5                   TIOA POINTER.
FIOABAR  EQU   6                   FIOA POINTER.
DATAREG  EQU   7                   POINTER TO DATA IN EMF FILE BLOCK.
DATALOOP EQU   8                   LOOP REG FOR PROCESSING WITH DATAREG
OUTREG   EQU   9                   POINTER TO VARIABLE AREA IN TIOA.
OUTLOOP  EQU   10                  LOOP REG FOR PROCESSING WITH OUTREG.
LINKREG  EQU   11                  LINKAGE TO COMMON SUBROUTINES.
R15      EQU   15
SBA      EQU   X'11'
SF       EQU   X'1D'
IC       EQU   X'13'
UNA      EQU   X'40'
UHA      EQU   X'C8'
PNA      EQU   X'60'
PDA      EQU   X'E8'
PIA      EQU   X'6D'
MNP      EQU   X'61'
L2P1     EQU   X'C150'
L3P1     EQU   X'C260'
L1P1     EQU   X'4040'
L5P1     EQU   X'C260'
L1P36    EQU   X'40E3'
L4P1     EQU   X'C3F0'
L1P7     EQU   X'40C6'
L3P39    EQU   X'C1F6'
L2P79    EQU   X'C25E'
L2P1LG   EQU   X'C150'
L3P1LG   EQU   X'C260'
L4P1LG   EQU   X'C3F0'
L1P1SM   EQU   X'4040'
L2P1SM   EQU   X'40E8'
L3P1SM   EQU   X'C150'
L4P1SM   EQU   X'C1F8'
L6P26    EQU   X'C6E9'
         PRINT OFF
         COPY  DFHCSADS
         COPY  DFHTCTLE
         COPY  DFHTCTTE
         COPY  DFHTCADS
         PRINT ON
PARM1    DS    D                   1ST INPUT FIELD.
PARM2    DS    D                   2ND INPUT FIELD.
PARM3    DS    D                   3RD INPUT FIELD.
PARM4    DS    D                   4TH INPUT FIELD.
PARM5    DS    D                   5TH INPUT FIELD.
PARM6    DS    D                   6TH INPUT FIELD.
TWASBAS  DS    PL1                 COUNT OF SBA'S IN INPUT MSG.
TWAREL   DS    CL3                 FILE CONTROL RELATIVE BLK ADDR.
TWALINE  DS    F                   ADDR OF OUR TCTLE
DUBLWD   DS    D                   WORK AREA.
TWATIOA  DS    F                   SAVE INPUT ADDRESS.
TWATCTID DS    F                   SAVE TERML ID.
TWASLOT  DS    F                   SLOT COUNTER.
SAVE14   DS    F                   SAVE AREA.
TWAOUT   DS    F                   SAVE OUTPUT HDR ADDR
LINESZ   DS    H                   LINE SIZE (3277 MOD 1 OR MOD 2)
LINELOOP DS    H                   NBR LINE ITEMS PER LINESZ.
OUTSWCH  DS    C
HXLINLIB DS    0CL6                LINE ADDRESS INCLUDING
         DS    C
HEXLINE  DS    CL2                      VTAM LIB ADDR
HEXLIB   DS    CL3                      IN HEX FORMAT.
HEXCTRL  DS    C                   CTRL UNIT POLL CHAR.
HEXTERM  DS    C                   TERML POLL CHAR.
NEWFIRST DS    CL5                 SAVE AREA FOR OLD BLK & SLOT NBR.
NEWPREV  DS    CL5                 SAVE AREA FOR OLD BLK & SLOT NBR.
SAVETERM DS    CL8                 TERMINAL SAVE AREA FOR 'NO ERR' MSG
SAVECU   DS    CL8                 CTRL UNIT SAVE AREA FOR 'NO ERR' MSG
SAVELINE DS    CL8                 LINE SAVE AREA FOR 'NO ERR' MSG
SAVEID   DS    CL20                CICS SYMBOLIC ID FOR 'NO ERR' MSG
BITFIRST DS    CL5                 FIRST BBBSS
BITLAST  DS    CL5                 SECOND BBBSS
BITPREV  DS    CL5                 THIRD BBBSS
DATDATE  DS    CL4                 DATE OF ERROR - 00YYDDDF
DATTIME  DS    CL4                 TIME OF ERROR - HHMMSSHH
DATASLOT DSECT
         USING *,DATAREG
DATALTH  DS    C                   LTH OF THIS SLOT
LINEID   DS    CL6                 LINE AND LIB ADDR
ENTRYTYP DS    C                   ENTRY TYPE - MDR OR OBR
         DS    CL3
MDRTYPE  DS    C                   TYPE HDWE - 03 EQUALS 3270
         DS    CL3
DATE     DS    CL4                 DATE OF ERROR - 00YY0DDF
TIME     DS    CL4                 TIME OF ERROR - HHMMSSHH
         DS    CL8
MDRCUA   DS    CL2                 MDR CHAN & UNIT ADDR
MDRCTRL  DS    C                   MDR CTRL UNIT POLL ADDR
MDRTERM  DS    C                   MDR TERMIL POLL ADDR
MDRSTATS DS    CL2                 REMOTE 3270 STATUS
         DS    CL2
OBRCCW   DS    CL8                 LAST CCW EXECUTED
OBRCSW   DS    CL8                 CHANNEL STATUS WORD
         DS    CL6
OBRUCB   DS    C
         DS    CL3
OBRCUA   DS    CL2                 OBR CHAN & UNIT ADDR
OBRCTRL  DS    C
OBRTERM  DS    C
         DS    CL12
OBRSENSE DS    CL2                 OBR SENSE BYTES
         ORG   DATALTH
CTRLPORT DS    CL6                 PORT & LIB ADDRESS
         DS    CL4
CTRLFRST DS    CL3                 REL BLK ADDR 1ST BLK IN CHAIN.
         DS    CL3
SLOTLTH  EQU   *-CTRLPORT
         COPY  DFHTIOA
SBA1     DS    CL3                 1ST SBA POSITION.
CODE     DS    CL4                 TRANS CODE.
SBA2     DS    CL3                 2ND SBA
PGRM     DS    CL4                 PROGRAM NAME.
SBA3     DS    CL3                 3RD SBA.
FLP      DS    CL15                FIRST/LAST/PREVIOUS IF BLOWUP RQST.
SBA4     DS    CL3                 4TH SBA.
BUX      DS    CL4                 X FOR BLOWUP REQUEST.
TIOITEM  DS    CL5                 ITEM ADDRESS TO BLOWUP.
         ORG   FLP                 START OF BBBSS AREAS
         DS    C                   FOR FORWARD AND BACKWARD REQUST
         DS    CL3                 4TH SBA FOR BBBSS
TIOFIRST DS    CL5                 FIRST BBBSS AREA
TIOLAST  DS    CL5                 LAST BBBSS AREA
TIOPREV  DS    CL5                 PREVIOUS BBBSS AREA
         COPY  DFHFIOA
CTRLLAST DS    F                   LAST USED ADDR IN DATASET
CTRLTOTL DS    F                   TOTAL BLOCKS IN DATASET
CTRLBACK DS    F                   BACKWARD PTR IN CTRL BLK CHAIN
CTRLFWD  DS    F                   FORWARD PTR IN CTRL BLK CHAIN
CTRLENTS DS    C                   NBR ENTRIES IN THIS CTRL BLK
         DS    CL15                FOR FUTURE USE
CTRLSLT1 DS    0C                  START OF CTRL SLOT NBR ONE.
         ORG   FIOADBA
DATAPORT DS    CL6                 PORT & LIB ADDR
DATATIME DS    CL4                 TIME BLOCK CREATED
DATADATE DS    CL4                 DATE BLOCK CREATED
DATAFWD  DS    CL3                 FORWARD CHAIN ADDR
DATABACK DS    CL3                 BACKWAD CHAIN ADDR
BLKLTH   DS    CL2                 NBR BYTES USED IN THIS BLOCK
         DS    CL10
DATASLT1 DS    0C                  START OF 1ST DATA SLOT
BNGC3270 CSECT
         BALR  BASE1,0
         USING *,BASE1,BASE2
BNGC3270 BNGHJN SKIPID                                         @OZ30480
         LA    BASE2,2048(BASE1)   SETUP PROGRAM BASE REGS.
         LA    BASE2,2048(BASE2)
         L     TCTTEAR,TCAFCAAA    POINT TO TCT TERML ENTRY.
         LA    TCTTEAR,0(TCTTEAR)  CLEAR HIGH ORDER BYTE FROM ADDR
         L     TIOABAR,TCTTEDA     POINT TO TIOA INPUT AREA.
A005     CP    TWASBAS,=P'2'       WERE LESS THAN 2 FIELDS INPUT?
         BNL   J010                NO. GO EXAMINE INPUT FURTHER.
A010     XC    TWAREL,TWAREL       YES. THIS IS A NEW RECAP REQUEST.
         CLC   PARM3(3),=C'ALL'    IF PARM 3 IS ONE OF THE DEMF
         BE    A140                DISPLAY CODES, THIS INPUT WAS FROM
         CLC   PARM3(4),=C'CTRL'          FORMATTED SCREEN.
         BE    A140                ZERO IT OUT AND TRY AGAIN.
         CLC   PARM3(4),=C'LINE'
         BE    A140
         CLC   PARM3(4),=C'3270'
         BE    A140
         CLC   PARM4(3),=C'ALL'
         BE    A130
         CLC   PARM4(4),=C'CTRL'
         BE    A130
         CLC   PARM4(4),=C'LINE'
         BE    A130
         CLC   PARM4(4),=C'3270'
         BE    A130
         CLC   PARM5(3),=C'ALL'
         BE    A120
         CLC   PARM5(4),=C'CTRL'
         BE    A120
         CLC   PARM5(4),=C'LINE'
         BE    A120
         CLC   PARM5(4),=C'3270'
         BE    A120
         OC    PARM3,PARM3         WAS LINE ID INPUT?
         BNZ   B140                YES. GO SEARCH CTRL BLK FOR IT.
         TM    TCTEAMIB,TCTEVTAM    IS THIS FROM A VTAM TERM?
         BO    A110                 YES. CAN'T HONOR REQUEST.
         L     14,CSATCTBA         POINT TO TCT PREFIX.
         L     14,4(14)            POINT TO BTAM ADCON LIST.
A030     CLC   0(4,14),=X'FFFFFFFF'  ANY MORE LINES TO LOOK AT?
         BE    S190                NO. SEND 'INVALID INPUT' MSG.
         L     1,0(14)             POINT TO A LINE.
         ST    1,TWALINE           STORE ADDR IN CASE THIS IS IT.
         TM    TCTLELF,TCTLEFAA    IS THIS A POOLED LINE?
         BZ    A090                NO.
         TM    TCTLEPI,TCTLEMFP    YES. IS IT 1ST IN POOL?
         BZ    A150                NO. SKIP IT - DOESN'T POINT TO DCB.
A090     L     15,TCTLEPA          YES. POINT TO 1ST TERML.
A100     CLC   TCTTETI,0(15)       IS THIS OUR TERML?
         BE    A170                YES. HAVE LOCATED ITS LINE ENTRY.
         TM    (TCTTELT-TCTTETI)(15),TCTTECLT  LAST TERML ON LINE?
         BO    A150                YES. GO LOOK AT NEXT LINE.
         AH    15,(TCTTETEL-TCTTETI)(15)  BUMP TO NEXT TERML.
         B     A100
A110     BAL   LINKREG,D090             GET IOAREA FOR MSG     @OX22095
         MVC   TIOATDL(VTAMLTH),VTAMMSG                        @OX22095
         MVC   TIOATDL+(VTAMID-VTAMMSG)(4),TCTTETI
         B     D170
VTAMMSG  DC    AL2(VTAMLTH-4),X'0000'
         DC    CL10'BNG010I C '
VTAMID   DC    CL8' ',CL21' IS A VTAM TERMINAL. '
         DC    CL39'FOR INQUIRY,GIVE DEMF HARDWARE ADDRESS.'
VTAMLTH  EQU   *-VTAMMSG
A120     XC    PARM5,PARM5
         B     A010
A130     XC    PARM4(16),PARM4
         B     A010
A140     XC    PARM3(24),PARM3     ZERO OUT PARMS 3, 4, AND 5.
         B     A010
A150     LA    14,4(14)            BUMP TO NEXT LINE ADDRESS.
         B     A030
A170     EQU   *
         L     1,TWALINE           POINT TO THIS TERML'S LINE.
         L     14,TCTLEDCB         POINT TO THE DCB.
         USING IHADCB,14
         DCBD
BNGC3270 CSECT
         SR    15,15
         TM    TCTTETT,X'60'       IS THIS A LOCAL DEVICE?     @OX25587
         BNZ   NOTLOCL1            NO. GET NBR. FROM LE.       @OX25587
         TM    TCTTETT,X'98'       IS THIS A LOCAL DEVICE?     @OX25587
         BO    A200                YES. GET LINE NBR FROM TE.  @OX25587
NOTLOCL1 IC    15,TCTLERLN         NO. GET LINE NBR FROM LE.   @OX25587
         B     A210
A200     IC    15,TCTTEGU
         LTR   15,15               DID WE GET A RLN?           @OX27899
         BNZ   A210                YES, USE IT                 @OX27899
         LA    15,1(0)             NO, MUST BE TCAM SET TO ONE @OX27899
A210     L     1,DCBDEBAD          POINT TO THE DEB.
         LA    1,32(1)             POINT TO LIST OF UCBS.
A220     BCT   15,A230
         B     A250
A230     LA    1,4(1)              BCT TO APPROPRIATE RLN UCB.
         B     A220
A250     L     1,0(1)              POINT TO THE UCB.
         MVC   PARM3(3),13(1)      MOVE LINEID TO INPUT PARM FIELD.
         TM    TCTTETT,X'60'       IS THIS A LOCAL DEVICE?     @OX25587
         BNZ   NOTLOCL2            YES, NOT LOCAL              @OX25587
         TM    TCTTETT,X'98'       IS THIS A LOCAL 3270?       @OX25587
         BO    B130                YES. BYPASS POLL CHARS.     @OX25587
NOTLOCL2 L     14,TCTTETA          POINT TO ADDRESSING LIST.   @OX25587
         UNPK  DUBLWD,0(2,14)      GET CTRL UNIT ADDRESS.
         TR    DUBLWD,HXTOEB       CONVERT IT TO 2 EBCDIC CHARS.
         MVC   PARM4(2),DUBLWD+5   MOVE THEM TO INPUT PARM FIELD.
         NI    PARM4,X'FD'         CONVERT REMOTE CU TO ACTUAL CU NUM
         CLI   0(14),X'61'         SPECIAL CASE                @OX25492
         BNE   TESTF0              NO, CHECK AGAIN             @OX25492
TESTC3   MVI   PARM4,X'C3'         YES                         @OX25492
         B     OUT1                CNTL POLL CHAR COMPLETE     @OX25492
TESTF0   CLI   0(14),X'F0'         SECOND SPECIAL CASE         @OX25492
         BNE   TESTE0              NO, WAS '2' BYTE ANDED      @OX25492
         MVI   PARM4,X'F5'         YES                         @OX25492
         B     OUT1                CNTL POLL CHAR COMPLETE     @OX25492
TESTE0   TM    0(14),X'10'         TEST FOR '1' BYTE           @OX25492
         BO    OUT1                NOT 'E'                     @OX25492
         TM    0(14),X'E0'         CHECK FOR 'E'               @OX25492
         BO    TESTC3              YES, MAKE IT AN 'E'         @OX25492
OUT1     EQU   *                                               @OX25492
         UNPK  DUBLWD,2(2,14)      GET TERML ADDRESS.
         TR    DUBLWD,HXTOEB       CONVERT IT TO 2 EBCDIC CHARS.
         MVC   PARM5(2),DUBLWD+5   MOVE THEM TO INPUT PARM FIELD.
*
* AT THIS POINT, IF NO INPUT LINE/CTRL/TERM WAS SPECIFIED, THE
* ADDRESS PERTAINING TO THE REQUESTOR'S TERMINAL HAS BEEN PLACED
* IN THE INPUT PARMS AS IF THEY HAD BEEN KEYED IN.
*
B130     MVC   TWATCTID,TCTTETI    MOVE THIS TERML'S CICS ID ALSO.
B140     MVC   SAVETERM,PARM5      MOVE TERMINAL  TO SAVE AREA
         MVC   SAVECU,PARM4        MOVE CTRL UNIT TO SAVE AREA
         MVC   SAVELINE,PARM3      MOVE LINE      TO SAVE AREA
B160     MVC   DUBLWD+5(3),PARM3
         TR    DUBLWD,EBTOHX            GET LINE,
         PACK  DUBLWD(3),DUBLWD+5(4)    CONTROL UNIT,
         MVC   HEXLINE,DUBLWD           AND
         MVC   DUBLWD+5(3),PARM4        TERMINAL
         TR    DUBLWD,EBTOHX            ADDRESS
         PACK  DUBLWD(2),DUBLWD+5(3)    INTO HEX
         MVC   HEXCTRL,DUBLWD           FORMAT
D070     MVC   DUBLWD+5(3),PARM5        FOR COMPARING
         TR    DUBLWD,EBTOHX            TO DATA IN
         PACK  DUBLWD(2),DUBLWD+5(3)    DISK FILE.
         MVC   HEXTERM,DUBLWD
         ST    TIOABAR,TWATIOA     SAVE ADDR OF ORIGINAL INPUT AREA.
         BAL   LINKREG,GETTIOA     SETUP NEW OUTPUT AREA WITH HDRS.
D080     DFHFC TYPE=GET,DATASET=EMFILE,RDIDADR=TWAREL,NORESP=D190
D089     LA    LINKREG,CONTINUE         SETUP FOR FALL THROUGH @OX22095
D090     DFHSC TYPE=GETMAIN,CLASS=TERM,NUMBYTE=256,INITIMG=40
         L     TIOABAR,TCASCSA     GET A NEW OUTPUT AREA BIG
         ST    TIOABAR,TCTTEDA     ENOUGH FOR THE BNG001 ERR MSG.
         BR    LINKREG                  RESUME                 @OX22095
CONTINUE EQU *                                                 @OX22095
         MVC   TIOADBA(IOERRLTH),IOERRMSG
         MVC   TIOATDL,=AL2(IOERRLTH)
         UNPK  DUBLWD,TWAREL(4)         SETUP I/O ERROR MSG WITH
         TR    DUBLWD,HXTOEB            BLOCK NBR THAT
         MVC TIOADBA+(IOBLOCK-IOERRMSG)(3),DUBLWD+4  WAS BEING READ,
         UNPK  DUBLWD,TCAFCAA(3)        AND THE CICS FILE
         TR    DUBLWD,HXTOEB            CONTROL RETURN CODE.
         MVC   TIOADBA+(IOCODE-IOERRMSG)(2),DUBLWD+3
D170     DFHTC TYPE=(WRITE,ERASE)
         DFHPC TYPE=RETURN
D190     L     FIOABAR,TCAFCAA     POINT TO FILE I/O AREA.
         SR    DATALOOP,DATALOOP   SETUP TO LOOP ON NBR OF
         IC    DATALOOP,CTRLENTS   ENTRIES IN THIS CNTRL BLK.
         LTR   DATALOOP,DATALOOP   VERIFY THAT THE DATA SET
         BNZ   E030                IS NOT EMPTY.
D240     BAL   LINKREG,D090             GET IOAREA FOR MSG     @OX22095
         LA    OUTREG,TIOADBA           POINT TO OUTPUT AREA   @OX22095
         CLI   TCTTETM,X'F1'       IS THIS A 3277-1?
         BE    D250                YES.
         MVC   TIOADBA(M11LGLTH),MSG11LG  SEND 'NO ERRS' MSG
         B     D260
D250     MVC   TIOADBA(M11SMLTH),MSG11SM  SEND 'NO ERRS' MSG
D260     CLI   SAVETERM,X'00'      IS THERE A TERMINAL ID?
         BE    D280                NO. IT IS LOCAL TERMINAL
         CLI   TCTTETM,X'F1'       IS THIS A 3277-1?
         BE    D271                YES.
         MVC   (M11LGTRM-MSG11LG)(2,OUTREG),SAVETERM
         MVC   (M11LGCU-MSG11LG)(2,OUTREG),SAVECU
         MVC   (M11LGLN-MSG11LG)(3,OUTREG),SAVELINE
         MVC   (M11LGID-MSG11LG)(20,OUTREG),SAVEID
         MVC   TIOATDL,=AL2(M11LGLTH)
         B     D300
D271     MVC   (M11SMTRM-MSG11SM)(2,OUTREG),SAVETERM
         MVC   (M11SMCU-MSG11SM)(2,OUTREG),SAVECU
         MVC   (M11SMLN-MSG11SM)(3,OUTREG),SAVELINE
         MVC   (M11SMID-MSG11SM)(20,OUTREG),SAVEID
         MVC   TIOATDL,=AL2(M11SMLTH)
         B     D300
D280     CLI   TCTTETM,X'F1'       (LOCAL) IS THIS A 3277-1?
         BE    D281                YES.
         MVC   TIOADBA(M12LGLTH),MSG12LG  SEND 'NO ERRS' MSG
         MVC   (M12LGTRM-MSG12LG)(3,OUTREG),SAVELINE      LOCAL TERM
         MVC   (M12LGID-MSG12LG)(20,OUTREG),SAVEID
         MVC   TIOATDL,=AL2(M12LGLTH)
         B     D300
D281     MVC   TIOADBA(M12SMLTH),MSG12SM  SEND 'NO ERRS' MSG
         MVC   (M12SMTRM-MSG12SM)(3,OUTREG),SAVELINE      LOCAL TERM
         MVC   (M12SMID-MSG12SM)(20,OUTREG),SAVEID
         MVC   TIOATDL,=AL2(M12SMLTH)
D300     DFHTC TYPE=(WRITE,ERASE)
         DFHPC TYPE=RETURN
E030     LA    DATAREG,CTRLSLT1    POINT TO FIRST CTRL SLOT.
E040     OC    PARM4,PARM4         WAS A CTRL UNIT ADDR INPUT?
         BNZ   E110                YES. LINE ID IS CORRECT.
         XC    DUBLWD,DUBLWD       NO. THIS MUST BE RQST FOR LOCAL.
         MVC   DUBLWD(3),HXLINLIB  ROUND CUA ADDR DOWN
         NI    DUBLWD+2,B'11100000'     TO EVEN CHAN ADDR.
         CLC   DUBLWD(6),CTRLPORT       LOOK FOR EQUAL LINE ADDRESS.
         B     E120
E110     CLC   HXLINLIB,CTRLPORT   IS THIS SLOT = RQSTD LINE ADDR?
E120     BE    E200                YES. GO READ ITS DATA BLOCK.
         LA    DATAREG,SLOTLTH(DATAREG)  NO. BUMP TO NEXT CTRL SLOT.
         BCT   DATALOOP,E040            MORE SLOTS TO LOOK AT?
         OC    CTRLBACK,CTRLBACK        NO. IS THERE ANOTHER CTRL BLK?
         BZ    D240                NO. SEND 'NO ERRS' MSG.
         MVC   TWAREL,CTRLBACK+1        YES. SAVE NEXT BLOCK ADDR.
         DFHFC TYPE=RELEASE
         B     D080
E200     MVC   TWAREL,CTRLFRST     MOVE DATA BLOCK ADDR.
F020     DFHFC TYPE=RELEASE        RELEASE THE CONTROL BLOCK.
         OC    TWAREL,TWAREL       IS THERE ANY DATA BLOCKS ?  @OZ31885
         BZ    T190                NO, WRITE 'NO DATA BLKS MSG'@OZ31885
         DFHFC TYPE=GET,DATASET=EMFILE,RDIDADR=TWAREL,NORESP=F050
         B     D089                                            @OX22095
F050     L     FIOABAR,TCAFCAA     POINT TO DATA BLOCK.
         XC    TWASLOT,TWASLOT     INITIALIZE SLOT COUNT TO 1.
         LH    DATALOOP,BLKLTH     SETUP TO LOOP ON NBR BYTES IN REC.
         LA    DATAREG,DATASLT1    POINT TO FIRST DATA ITEM.
F080     L     14,TWASLOT
         LA    14,1(14)            ADD ONE TO SLOT COUNT
         ST    14,TWASLOT
         CLI   ENTRYTYP,X'91'      IS THIS ENTRY AN MDR RECORD?
         BNE   H060                NO. TEST FURTHER.
         CLI   MDRTYPE,X'03'       YES. IS IT A 3270?
         BE    G060                YES. TEST FURTHER.
F120     SR    1,1                 NO. BUMP
         IC    1,0(DATAREG)        TO NEXT DATA ITEM.
         LTR   1,1                 PRECENT ENDLESS LOOP
         BZ    F240                IN CASE GARBAGE IN RECORD.
         AR    DATAREG,1
         SR    DATALOOP,1          ALL DONE WITH THIS BLOCK?
         LTR   DATALOOP,DATALOOP
         BP    F080                NO. PROCESS NEXT ITEM.