.* MVS 3.8J PUBLIC DOMAIN
         PRINT OFF
         MACRO
&NAME    BNGHJN &LABEL,&HJN
         LCLA  &K
         LCLC  &HJA,&HJB,&HJC
&HJC     SETC  'PTF NO.'
&K       SETA  K'&SYSPARM
         AIF   (&K LT 4).CODE
&HJA     SETC  '&SYSPARM'(1,4)
         AIF   (&K LT 8).CODE
&HJB     SETC  '&SYSPARM'(5,4)
         AIF   (&K LT 15).CODE
&HJC     SETC  '&SYSPARM'(9,7)
.CODE    ANOP
         AIF   ('&LABEL' EQ '').NOBRNCH
         B     &LABEL .                 BR AROUND CONSTANTS
         SPACE 2
.NOBRNCH ANOP
         AIF   ('&NAME' EQ '').NOLABEL
         DC    C'&NAME' .              MODULE IDENTIFIER
.NOLABEL ANOP
         AIF   ('&HJA' EQ '').NEXT
         DC    X'&HJA' .                DATE OF MODIFICATION
.NEXT    ANOP
         AIF   ('HJB' EQ '').DATE
         AIF   ('&HJN' NE 'HJN').DATE
         DC    X'&HJB' .                HJN OF MODIFICATION
.DATE    ANOP
         DC    C'&HJC' .                PTF LEVEL
.NOPTF   ANOP
         AIF   ('&LABEL' EQ '').NOLBL
         SPACE 2
&LABEL   DS    0H
.NOLBL   ANOP
         MEND
         PRINT ON
***********************************************************************
*                                                                     *
* MODULE NAME = BNGCDISP                                              *
*                                                                     *
* DESCRIPTIVE NAME = CICS DEMF DISPLAY CONTROL MODULE                 *
*                                                                     *
*                                                                     *
* STATUS = RELEASE 1, LEVEL 1                                         *
*                                                                     *
* FUNCTION = 1) RECEIVES CONTROL FROM CICS;                           *
*            2) EDITS THE INPUT INTO 6 PARM FIELDS WITH LEFT JUSTIFY; *
*            3) DOES SYNTAX CHECK ON DEMF COMMANDS AND PARAMETERS;    *
*            4) DETERMINES WHETHER THE REQUEST IS FOR MENU,REMOTE,    *
*               LOCAL OR 3270 SCREEN ERROR DISPLAY AND PASSES CONTROL *
*               TO BNGTMENU,BNGTRMOT,BNGTLOCL OR BNGT3270 SEGMENT     *
*               ACCORDINGLY WITH PARAMETERS;                          *
*            5) HANDLES ALL,LINE AND CTRL ERROR DISPLAY REQUEST AND   *
*               WRITES ITS ERROR INFORMATION TO THE 3270 DISPLAY      *
*               TERMINAL AND ISSUES SOME OF THE DISPLAY MESSAGES;     *
*            6) ACCESSES SYS1.DEMFLOG DATA FILE FOR ALL,LINE AND CTRL *
*               ERROR DISPLAY REQUEST;                                *
*            7) RETURNS CONTROL TO CICS.                              *
*                                                                     *
* NOTES = NONE                                                        *
*                                                                     *
*    DEPENDENCIES =                                                   *
*                                                                     *
*    THE FOLLOWING ARE CICS TABLES/CONTROL BLOCKS AND THEIR LABELS    *
*    USED BY DEMF CICS MODULES (BNGCDISP,BNGC3270,BNGCLOCL,BNGCRMOT   *
*    BNGCMENU) :                                                      *
*                                                                     *
*    CICS TABLE AND                                                   *
*    CONTROL BLOCKS                  LABELS USED                      *
*    ----------------------          -----------                      *
*                                                                     *
*    COMMON SYSTEM AREA              CSATCTBA                         *
*    (CSA)                                                            *
*                                                                     *
*    TERMINAL CONTROL TABLE          TCTTEDA                          *
*    TERMINAL ENTRY (TCTTE)          TCTTETM                          *
*                                    TCTTELT                          *
*                                    TCTTETI                          *
*                                    TCTTECLT                         *
*                                    TCTTETEL                         *
*                                    TCTTETT                          *
*                                    TCTTEGU                          *
*                                    TCTTETA                          *
*                                                                     *
*    TERMINAL CONTROL TABLE          TCTLELF                          *
*    LINE ENTRY (TCTLE)              TCTLEFAA                         *
*                                    TCTLEPI                          *
*                                    TCTLEMFP                         *
*                                    TCTLEPA                          *
*                                    TCTLEDCB                         *
*                                    TCTLERLN                         *
*                                                                     *
*    TERMINAL INPUT/OUTPUT AREA      TIOADBA                          *
*    (TIOA)                          TIOATDL                          *
*                                                                     *
*    TASK CONTROL AREA               TCAFCAAA                         *
*    (TCA)                           TCAFCAA                          *
*                                    TCAPCPI                          *
*                                    TCASCSA                          *
*                                                                     *
*    FILE INPUT/OUTPUT AREA          FIOADBA                          *
*    (FIOA)                                                           *
*                                                                     *
*    RESTRICTIONS = NONE                                              *
*                                                                     *
*    REGISTER CONVENTIONS = R12 ADDRESS OF TCA                        *
*                           R13 ADDRESS OF CSA                        *
*                                                                     *
*    PATCH LABEL = NONE                                               *
*    PATCH LABEL = PATCH                                       @OX21950
*                                                                     *
* MODULE TYPE =  CICS DISPLAY CONTROL                                 *
*                                                                     *
*    PROCESSOR = ASSEMBLER H                                          *
*                                                                     *
*    MODULE SIZE = 5632 DECIMAL BYTES                                 *
*                                                                     *
*    ATTRIBUTES = QUASI-REENTRANT                                     *
*                                                                     *
* ENTRY POINT = BNGCDISP                                              *
*                                                                     *
*    PURPOSE = SEE FUNCTION                                           *
*                                                                     *
*    LINKAGE = R12 LOADED WITH THE ADDRESS OF TCA                     *
*              R13 LOADED WITH THE ADDRESS OF CSA                     *
*              R14 LOADED WITH THE RETURN ADDR (USED BY SUBROUTINE)   *
*              R15 LOADED WITH ENTRY POINT                            *
*                                                                     *
* INPUT =  INPUT TIOA                                                 *
*                                                                     *
* OUTPUT = OUTPUT TIOA                                                *
*                                                                     *
* EXIT-NORMAL = REGISTER 15 RETURN CODE RETURNED TO CALLER :          *
*               00 - OPERATION PERFORMED AS REQUESTED                 *
*                                                                     *
* EXIT-ERROR  = NONE                                                  *
*                                                                     *
* EXTERNAL REFERENCE = BNGCLOCL,BNGCRMOT,BNGCMENU AND BNGC3270        *
*                                                                     *
*    ROUTINES = LOCATE ROUTINE                                        *
*               MOD1SCAN ROUTINE                                      *
*               MOD1 TABLE BUILD (AT LABEL S215) ROUTINE              *
*                                                                     *
*    DATA AREAS =  TWA (300 BYTES)                                    *
*                                                                     *
*    CONTROL BLOCK = DFHCSADS, DFHTCTTE, DFHTCTLE, DFHTCADS,          *
*                    DFHTIOA, DFHFIOA                                 *
*                                                                     *
* TABLES = TABLE    - FUNCTION/COMPANION TABLE                        *
*          MOD1TAB  - 3277 MODEL 1 TABLE                              *
*          HXTOEB   - HEX CHARS TO EBCDIC CHARS TABLE                 *
*          EBTOHX   - EBCDIC CHARS TO HEX CHARS TABLE                 *
*          LOTOUP   - LOWER TO UPPER CASE CHARS TABLE                 *
*                                                                     *
* MACROS = DCBD, DFHFC, DFHSC, DFHTC, DFHPC                           *
*                                                                     *
* CHANGE ACTIVITIES AS FOLLOWS:                                       *
* CHANGE 01  11/15/77  PROLOGUE ADDED                                 *
* CHANGE 02  02/22/78  BNGHJN MACRO ADDED                             *
*A139000                                                       @OZ29900
*C521500                                                       @OZ30480
*A489500                                                       @OZ31882
*D454000-455000                                                @OZ31878
*C456500-457000,551500-552000,601000-602000,603500-607000      @OZ31878
*C608500-611000                                                @OZ31878
*A412000,654500,684000                                         @OZ31885
*C037000,360500-361500                                         @OX21950
*A728500                                                       @OX21950
*C142500                                                       @OX22096
*A654800                                                       @OX22096
*C358000,641000-642500,645000,646000,647000,648000,650500      @OX22095
*C651500,653500-654000,654700                                  @OX22095
*A281500                                                       @OX22763
*DUMMY APAR TO CORRECT PREREQ STRINGS ON PREVIOUS PTF'S        @OZ36693
*C288000                                                       @OZ37867
*A431500                                                       @OZ38643
*C332500                                                       @OZ43235
*A295505-295565                                                @OX25492
*C076000-077000                                                @OZ39277
*A285700,285800,292700,292800                                  @OX25587
*C285500,286500,292500,293500                                  @OX25587
***********************************************************************
BNGCDISP TITLE 'DISPLAY AUDITS INPUT AND DISPLAYS ALL LINES,LINE, CTRL'
         PRINT OFF
         COPY  DFHCSADS
         COPY  DFHTCTTE
         COPY  DFHTCTLE
         COPY  DFHTIOA
         COPY  DFHTCADS
         PRINT ON
PARM1    DS    D                   1ST INPUT PARM - DEMF
PARM2    DS    D                   2ND INPUT PARM - ALL/LINE/CTRL/
*                                                    3270
PARM3    DS    D                   3RD INPUT PARM
PARM4    DS    D                   4TH INPUT PARM
PARM5    DS    D                   5TH INPUT PARM
PARM6    DS    D                   6TH INPUT PARM
SBACNT   DS    PL1                 COUNT OF SBA'S IN INPUT
RELREC   DS    CL3                 BDAM RELATIVE BLOCK ADDRESS
SVRELREC DS    CL3           SAVE AREA FOR LINE/CTRL RELATIVE BLOCK NO.
DBLWD    DS    D                   DOUBLEWORD WORK AREA
DUBLWD   EQU   DBLWD
FULLWD   DS    F                   FULLWORD WORK AREA
TWALINE  DS    F             SAVE AREA FOR CICS SYMBOLIC LINE POINTER
*   THE TWA FROM HERE UP MUST REMAIN IN THAT ORDER TO MATCH TWALINE
*         WITH TWATCTID IN THE 3270 PROGRAM.
LINEID   DS    XL6                 HARDWARE LINE ADDRESS
LINENAME DS    CL8           LINE NAME SAVE AREA FOR RECAP HEADER
CTRLID   DS    X                   HARDWARE CONTROL UNIT ADDRESS
CTRLNAME DS    XL8'00'       CTRL/CLUSTER NAME WORK AREA       @OZ39277
TERMNAME DS    XL8'00'             TERML/LOGICAL UNIT NAME WORK@OZ39277
CLUSNAME DS    XL8'00'       CTRL/CLUSTER NAME SAVE AREA       @OZ39277
NEWPARM  DS    C                   NEW-PARM SWITCH
CTRPARM  DS    C                   COUNTER OF CHARS STORED IN PARM(X)
SAVETIOA DS    F                   SAVE AREA FOR ORIGINAL TIOA
SAVEBBSS DS    F                   SAVE POINTER TO BLK AND SLOT
TWASLOT  DS    C                   INPUT SLOT COUNT IN HEX
WRKSLOT  DS    C                   TWASLOT WORK AREA
*                                  DISPLACEMENTS IN TIOA
SAVERCAP DS    F                   SAVEAREA FOR POINTER TO RECAP LINE
SAVEITEM DS    F                   SAVEAREA FOR POINTER TO FIRST LINE
*                                  AND CTRL DISPLAYS
SLOTCNT  DS    C                   COUNT OF DETAIL SLOTS READ
ITEMCNT  DS    PL2                 COUNT OF OUTPUT ITEMS IN LINE
WORKCNT  DS    PL2                 ITEM WORK COUNTER
WORK15   DS    CL15
QUITSW   DS    C             USED TO STOP EDIT OF INPUT ON 3RD SBA
*                             IF 2ND SBA = L1P7 OR L6P26  ***ALSO*** XH
*                            USED AS MOD-1 OUTPUT-FULL-SWITCH        XH
*                               00 = NOT FULL   FF = OUTPUT FULL BUT XH
*     CONTINUE SCANNING DATA BASE FOR CORRECT ERROR COUNTS           XH
***********************************************************************
MOD1TABL DS    CL64          MAX OF 32 ENTRIES FOR MOD-1 TABLE
*                              LOCAL TERM = 2-BYTES
*                              REMOTE CU AND TERM = 2-BYTES
TBRELREC DS    CL3           SAVE AREA FOR PAGING 'BBB'
TBSLOT   DS    C             SAVE AREA FOR PAGING 'SS'
TBCTRL   DS    C             SAVE AREA FOR MDR CTRL UNIT
TBLINE   DS    CL6           SAVE AREA FOR LINE ADDR OF PAGE
TBARG    DS    CL2           SAVE AREA FOR TABLE ARGUMENT
TABLECNT DS    PL2           COUNT OF ENTRIES IN TABLE
WKTBLCNT DS    PL2           WORK AREA FOR COUNT OF TABLE ENTRIES
MOD1SW   DS    X             00 = SWT OFF    FF = SWT ON
*                            IF ON, PERFORM MOD1 TABLE SCAN
SOUTLOOP DS    F             SAVE AREA FOR OUTLOOP REGISTER
***********************************************************************
         COPY  DFHFIOA
CTRLLAST DS    F                   LAST USED ADDR IN DATASET
CTRLTOTL DS    F                   TOTAL BLOCKS IN DATASET
CTRLBACK DS    F                   BACKWARD PTR IN CTRL BLK CHAIN
CTRLFWD  DS    F                   FORWARD PTR IN CTRL BLK CHAIN
CTRLENTS DS    C                   NBR ENTRIES IN THIS CTRL BLK
         DS    CL15                FOR FUTURE USE
CTRLSLT1 DS    0C                  START OF CTRL SLOT NBR ONE.
         ORG   FIOADBA
DATAPORT DS    CL6                 PORT & LIB ADDR
DATATIME DS    CL4                 TIME BLOCK CREATED
DATADATE DS    CL4                 DATE BLOCK CREATED
DATAFWD  DS    CL3                 FORWARD CHAIN ADDR
DATABACK DS    CL3                 BACKWAD CHAIN ADDR
BLKLTH   DS    CL2                 NBR BYTES USED IN THIS BLOCK
         DS    CL10
DATASLT1 DS    0C                  START OF 1ST DATA SLOT
SLOTS    DSECT           MAP OF ENTRIES IN CONTROL BLOCK
         USING SLOTS,DATAREG
SLOTLINE DS    CL6                CHANNEL ADDRESS(PORT OR LIB)
SLOTNBC  DS    CL2                NUMBER OF BLOCKS IN THIS CHAIN
SLOTHITS DS    CL2                TOTAL HITS ON THIS LINE
SLOTRFB  DS    CL3                RELATIVE ADDRESS FIRST BLOCK IN CHAIN
SLOTRLB  DS    CL3                RELATIVE ADDRESS LAST BLOCK IN CHAIN
SLOTLTH  EQU   *-SLOTS
         ORG   SLOTS         MAP OF MDR AND OBR IN DETAIL BLOCKS
DATALTH  DS    C                   LTH OF THIS SLOT
LINEIDA  DS    CL6                 LINE AND LIB ADDR
ENTRYTYP DS    C                   ENTRY TYPE - MDR OR OBR
         DS    CL3
MDRTYPE  DS    C                   TYPE HDWE - 03 EQUALS 3270
         DS    CL3
DATE     DS    CL4                 DATE OF ERROR - 00YY0DDF
TIME     DS    CL4                 TIME OF ERROR - HHMMSSHH
         DS    CL8
MDRCUA   DS    CL2                 MDR CHAN & UNIT ADDR
MDRCTRL  DS    C                   MDR CTRL UNIT POLL ADDR
MDRTERM  DS    C                   MDR TERMIL POLL ADDR
MDRSTATS DS    CL2                 REMOTE 3270 STATUS
         DS    CL2
OBRCCW   DS    CL8                 LAST CCW EXECUTED
OBRCSW   DS    CL8                 CHANNEL STATUS WORD
         DS    CL6
OBRUCB   DS    C
         DS    CL3
OBRCUA   DS    CL2                 OBR CHAN & UNIT ADDR
OBRCTRL  DS    C
OBRTERM  DS    C
         DS    CL12
OBRSENSE DS    CL2                 OBR SENSE BYTES
***********************************************************************
BNGCDISP CSECT
SBA      EQU   X'11'         SET BUFFER ADDRESS
SF       EQU   X'1D'         START FIELD
IC       EQU   X'13'         INSERT CURSOR
UNA      EQU   X'40'         UNPROTECTED,NORMAL INTENSITY, ALPHAMERIC
PNA      EQU   X'60'         PROTECTED, NORMAL INTENSITY, ALPHAMERIC
PHA      EQU   X'E8'             PROTECTED, HIGH INTENSITY, ALPHAMERIC
MNP      EQU   X'61'             PROT,MODIFIED,NORMAL
PIA      EQU   X'6D'             PROTECTED,MODIFIED,INVISIBLE,ALPHA
L1P1     EQU   X'4040'       LINE 1, POSITION 1  BUFFER ADDRESS.
L1P7     EQU   X'40C6'       LINE 1, POSITION 7  BUFFER ADDRESS.
L1P36    EQU   X'40E3'       LINE 1, POSITION 36 BUFFER ADDRESS.
L2P1     EQU   X'C150'       LINE 2, POSITION 1  BUFFER ADDRESS.
L2P4     EQU   X'C1D3'       PAGE FWD  BUFFER ADDR FOR 3277-2
L2P44    EQU   X'C17B'       PAGE BKWD BUFFER ADDR FOR 3277-2
L3P1     EQU   X'C260'       LINE 3, POSITION 1 BUFFER ADDRESS.
L3P4     EQU   X'C1D3'       LINE 3, POSITION 4 BUFFER ADDRESS.
L4P1     EQU   X'C3F0'       LINE 4, POSITION 1  BUFFER ADDRESS.
L4P4     EQU   X'C17B'       PAGE BKWD BUFFER ADDR FOR 3277-1
L6P26    EQU   X'C6E9'       LINE 6, POSITION 26 BUFFER ADDRESS.
TCTTEAR  EQU   2             POINTS TO TCTTE
BASE1    EQU   3             BASE REGISTER ONE = 0-4095
BASE2    EQU   4             BASE REGISTER TWO = 4096-8191
TIOABAR  EQU   5             POINTS TO TIOA
FIOABAR  EQU   6             POINTS TO FIOA
PARMREG  EQU   6             POINTS TO PARM AREA
OUTREG   EQU   7             POINTS TO DATA IN TIOA AREA
OUTLOOP  EQU   8             USED FOR LOOPING THRU DATA IN TIOA AREA
MOD1REG  EQU   8             POINTS TO MOD-1 TABLE (MOD1TABL)
DATAREG  EQU   9             POINTS TO DATA IN FIOA AREA
DATALOOP EQU   10            USED FOR LOOPING THRU DATA IN FIOA AREA
TABLEREG EQU   11            POINTS TO FUNCTION/COMPANION TABLE
R11      EQU   11            PARMLIST COUNTER WORK REGISTER FOR CTRPARM
LINKREG  EQU   11            SUBROUTINE LINKAGE
R14      EQU   14
R15      EQU   15
***********************************************************************
         BALR  BASE1,0
         USING *,BASE1,BASE2
BNGCDISP BNGHJN GO                                             @OZ29900
         LA    BASE2,2048(BASE1)
         LA    BASE2,2048(BASE2)
         L     TCTTEAR,TCAFCAAA
         LA    TCTTEAR,0(TCTTEAR)
         L     TIOABAR,TCTTEDA
         ZAP   SBACNT,=P'0'        SET SBA COUNTER TO ZERO.
         SR    DATAREG,DATAREG          CLEAR WORKREG          @OX22096
         LH    DATAREG,TIOATDL          GET TERMINAL DATA LEN  @OX22096
         BCTR  DATAREG,0                REDUCE BY ONE FOR EX   @OX22096
         EX    DATAREG,TRANS            DO DATA TRANSLATION    @OX22096
         LA    DATAREG,TIOADBA     POINT TO 1ST BYTE IN TIOA.
         LR    DATALOOP,DATAREG    SETUP DATA LOOP
         AH    DATALOOP,TIOATDL
         XC    PARM1(48),PARM1     ZERO OUT PARM FIELDS
         LA    PARMREG,PARM1       POINT TO PARMS.
         LR    14,PARMREG
         MVI   QUITSW,X'00'        SET QUITSW OFF.
         MVI   NEWPARM,C'1'        TURN ON 'NEW PARM' SWITCH.
         MVI   CTRPARM,X'00'       SET CHARS COUNTER IN PARM = ZERO
A160     CLI   0(DATAREG),SBA      IS THIS BYTE AN SBA?
         BNE   A210                NO. CHECK IT FURTHER.
         CLI   QUITSW,X'FF'            QUIT SWITCH ON?
         BE    C10                          YES.  QUIT EDIT.
         CLC   1(2,DATAREG),=AL2(L1P7)  IS 2ND SBA = LINE 1 POSN 7?
         BE    A170                              NO. CONTINUE EDIT
         CLC   1(2,DATAREG),=AL2(L6P26) IS 2ND SBA = LINE 6 POSN 26?
         BNE   A180                              NO. CONTINUE EDIT
A170     MVI   QUITSW,X'FF'            TURN QUIT SWITCH ON
A180     AP    SBACNT,=P'1'        YES. ADD TO TO SBA COUNTER.
         LA    DATAREG,2(DATAREG)  BUMP TIOA POINTER BY 2.
         B     B80
A210     CLI   0(DATAREG),C'A'     IS IT AN 'A' OR HIGHER?
         BL    B80                 NO. CHECK NEW PARM SWITCH.
         CLI   NEWPARM,C'1'        IS FIRST CHAR FOR PARM(X)?
         BNE   B10                 NO.
         MVI   NEWPARM,C'0'        YES. SET FIRST CHAR IN FOR PARM
         MVI   CTRPARM,X'00'       SET PARM CHAR CTR = 0
B10      IC    R11,CTRPARM         LOAD R11 = CTRPARM
         LA    R11,1(R11)          ADD CTRPARM = CTRPARM + 1
         STC   R11,CTRPARM         STORE NEW CTR BACK CTRPARM
         CLI   CTRPARM,X'08'       IS CHAR COUNT IN PARM OVER 8 ?
         BH    B50                 YES. GO BACK LOOP WITHOUT STORING
         MVC   0(1,14),0(DATAREG)  PUT THIS BYTE IN THIS PARM
         CLI   PARM6+7,X'00'       ARE ALL PARMS USED UP?
         BNE   C10                 YES. GOTO SYNTAX CHECKING ROUTINE
         LA    14,1(14)            BUMP PARM POINTER WORKREG.
B40      LA    DATAREG,1(DATAREG)  BUMP TIOA POINTER.
         CR    DATAREG,DATALOOP    IS THERE MORE DATA IN TIOA?
         BL    A160                YES. GO PROCESS MORE DATA.
         B     C10                 NO. GOTO SYNTAX CHECKING ROUTINE
B50      CLC   PARM2(5),=X'F3F2F7F000'  IS THIS A 3270 SCREEN INPUT ?
         BNE   B40                      NO.
         CP    SBACNT,=P'2'        IS THIS NON-FORMATTED INPUT ?
         BH    B40                 NO.
         B     Z40                 YES. SEND INVALID FORMAT MSG.
B80      CLI   NEWPARM,C'1'        IS NEW-PARM SWITCH ON?
         BE    B40                 YES. CHECK FOR MORE DATA.
         CLI   PARM6,X'00'         NO. ARE ALL PARMS USED UP?
         BNE   C10                 YES. GOTO SYNTAX CHECKING ROUTINE
         LA    PARMREG,8(PARMREG)  NO. BUMP TO NEXT NEW PARM.
         LR    14,PARMREG          POINT WORK REG TO NEXT PARM.
         MVI   NEWPARM,C'1'        TURN ON NEW-PARM SWICH.
         B     B40                 GO CHECK FOR MORE DATA.
***********************************************************************
*                                                                     *
*        AT THIS POINT UP TO 5 PARMS HAVE BEEN EDITED AND             *
*        ARE LEFT JUSTIFIED WITH TRAILING X'00'S                      *
*                                                                     *
***********************************************************************
         EJECT
***********************************************************************
*                                                                     *
*        SYNTAX CHECKING ROUTINE                                      *
*                                                                     *
***********************************************************************
C10      CLI   QUITSW,X'FF'            IS SBA QUIT SWT ON ?
         BE    C15                     YES. DATA ENTERED FROM 29 AREA
         CP    SBACNT,=P'1'            NO. IS SBACNT > 1 ?
         BH    CC10                    YES. BYPASS SYNTAX CHECK
         CLI   PARM2,X'00'             IS PARM2 BLANK ?
         BE    D80                     YES. GOTO BNGCMENU
C15      CLC   PARM2(5),=X'D4C5D5E400' IS PARM2=MENU ?
         BNE   C20                     NO
         CLI   PARM3,X'00'             IS PARM3 = 00 ?
         BE    D80                     YES. GOTO BNGCMENU
         B     Z40                     NO. GO ISSUE INVALID FORMAT MSG
C20      CLC   PARM2(4),=X'C1D3D300'   IS PARM2 = ALL ?
         BNE   C30                     NO
         CLI   PARM3,X'00'             IS PARM3 = 00 ?
         BE    CC10                    YES.GO SCHEDULE APPROPRIATE PGM
         B     Z40                     NO. GO ISSUE INVALID FORMAT MSG
C30      CLC   PARM2(6),=X'D3D6C3C1D300'  IS PARM2 = LOCAL ?
         BNE   C40                        NO
         CLI   PARM3,X'00'             IS PARM3 = 00 ?
         BE    CC10                   YES.GO SCHEDULE APPROPRIATE PGM
         CLC   PARM3+1(2),=C'SS'       IS LOCAL/REMOTE SCREEN ?
         BE    CC10                   YES.
         B     Z40                     NO. GO ISSUE INVALID FORMAT MSG
C40      CLC   PARM2(6),=X'D9C5D4D6E3C5' IS PARM2 = REMOTE ?
         BNE   C50                     NO.
         CLC   PARM2+7(1),=C'S'        IS REMOTE SCREEN ?
         BE    C45                     YES.
         CLI   PARM2+6,X'00'           IS REMOTE SYNTAX ERROR ?
         BNE   Z40                     YES. GO ISSUE INVALID FORMAT MSG
         CLI   PARM3,X'00'             IS PARM3 = 00 ?
         BE    CC10                   YES.GO SCHEDULE APPROPRIATE PGM
         B     Z40                     NO. GO ISSUE INVALID FORMAT MSG
C45      CLI   PARM3,X'00'             IS REMOTE SCREEN ?
         BNE   CC10                   YES.
         B     Z40                     NO. GO ISSUE INVALID FORMAT MSG
C50      CLC   PARM2(5),=X'D3C9D5C500' IS PARM2 = LINE ?
         BNE   C60                     NO
         CLI   PARM4,X'00'             IS PARM4 = 00 ?
         BNE   Z40                     NO. GO ISSUE INVALID FORMAT MSG
C55      CLI   PARM3+3,X'00'           LINE ADDR = 4 OR MORE ?
         BNE   Z40                     YES.
         CLI   PARM3+2,X'00'           LINE ADDR = 2 OR LESS ?
         BE    Z40                     YES.
         LA    DATALOOP,3              SET FOR SCAN 3 CHARS
         LA    DATAREG,PARM3           SET DATAREG = PARM3 PTR
C57      CLI   0(DATAREG),X'F0'        IS BYTE(PARM3) >= C'0' ?
         BNL   C59                     YES. IT IS NUMERIC
         CLI   0(DATAREG),X'C6'        IS BYTE(PARM3) > C'F' ?
         BH    Z40                     YES. IT IS INVALID FORMAT
C59      LA    DATAREG,1(DATAREG)      BUMP TO NEXT BYTE OF PARM3
         BCT   DATALOOP,C57            LOOP
         B     CC10                    NO. GO SCHEDULE APPROPRIATE PGM
C60      CLC   PARM2(5),=X'C3E3D9D300' IS PARM2 = CTRL ?
         BNE   C70                     NO
         CLI   PARM5,X'00'             IS PARM5 = 00 ?
         BNE   Z40                     NO.
         CLI   PARM4,X'00'             IS PARM4 = 00 ?
         BE    C55                     YES.
C65      CLI   PARM4+2,X'00'           CTRL ADDR = 3 OR MORE ?
         BNE   Z40                     YES.
         CLI   PARM4+1,X'00'           CTRL ADDR = 1 OR LESS ?
         BE    Z40                     YES.
C66      LA    DATALOOP,2              SET FOR SCAN 2 CHARS
         LA    DATAREG,PARM4           SET DATAREG = PARM4 PTR
C67      CLI   0(DATAREG),X'F0'        IS BYTE(PARM3) >= C'0' ?
         BNL   C69                     YES. IT IS NUMERIC
         CLI   0(DATAREG),X'C6'        IS BYTE(PARM3) > C'F' ?
         BH    Z40                     YES. IT IS INVALID FORMAT
C69      LA    DATAREG,1(DATAREG)      BUMP TO NEXT BYTE OF PARM3
         BCT   DATALOOP,C67            LOOP
         B     C55                     NO. GO CHECK LINE ADDR (PARM3)
C70      CLC   PARM2(5),=X'F3F2F7F000' IS PARM2 = 3270 ?
         BNE   Z40                     NO.
         CLI   PARM6,X'00'             IS PARM6 = 00 ?
         BNE   Z40                     NO.
         CLI   PARM5,X'00'             IS PARM5 = 00 ?
         BE    C75                     YES.
         CLI   PARM5+2,X'00'           IS TERMINAL ADDR = 3 OR MORE ?
         BNE   Z40                     YES.
         CLI   PARM5+1,X'00'           IS TERMINAL ADDR = 1 OR LESS ?
         BE    Z40                     YES.
         LA    DATALOOP,2              SET FOR SCAN 2 CHARS
         LA    DATAREG,PARM5           SET DATAREG = PARM5 PTR
C72      CLI   0(DATAREG),X'F0'        IS BYTE(PARM3) >= C'0' ?
         BNL   C74                     YES. IT IS NUMERIC
         CLI   0(DATAREG),X'C6'        IS BYTE(PARM3) > C'F' ?
         BH    Z40                     YES. IT IS INVALID FORMAT
C74      LA    DATAREG,1(DATAREG)      BUMP TO NEXT BYTE OF PARM3
         BCT   DATALOOP,C72            LOOP
         B     C65                     NO. GO CHK LINE AND CTRL
C75      CLI   PARM4,X'00'             IS PARM4 = 00 ?
         BNE   Z40                     NO.
         CLI   PARM3,X'00'             IS PARM3 = 00 ?
         BE    D10                     YES. BRANCH TO BNGC3270
***********************************************************************
*                                                                     *
*     THE FOLLOWING CODE CHECKS FOR A CICS SYMBOLIC MATCH             *
*                                                                     *
***********************************************************************