.* MVS 3.8J PUBLIC DOMAIN
         MACRO
&NAME    DSGA
&NAME    DC    XL2'FB00'                DISENGAGE & SET ATTENTION LIGHT
         MEND

