.* MVS 3.8J PUBLIC DOMAIN
         MACRO
&NAME    GBPOS
         GBLA  &IHBBPX,&IHBBPY
         IHBERMAC 185,&IHBBPX,&IHBBPY
         MEND

