.* MVS 3.8J PUBLIC DOMAIN
         MACRO
&NAME    GDPD
&NAME    IHBGAM2 10885
         MEND

