.* MVS 3.8J PUBLIC DOMAIN
         MACRO
&NAME    GDRD
&NAME    IHBGAM2 10883
         MEND

