.* MVS 3.8J PUBLIC DOMAIN
         MACRO
&NAME    GENSD
&NAME    IHBGAM2 10886
         MEND

