.* MVS 3.8J PUBLIC DOMAIN
         MACRO
&NAME  GEOS
&NAME    IHBGAM2 10881
         MEND

