.* MVS 3.8J PUBLIC DOMAIN
         MACRO
&NAME    GEPI2
         GBLA  &IHBMOD
&NAME    IHBGAM2 10756
&IHBMOD  SETA  2
         MEND

