.* MVS 3.8J PUBLIC DOMAIN
         MACRO
&NAME    GESD
&NAME    IHBGAM2 10884
         MEND

