.* MVS 3.8J PUBLIC DOMAIN
       MACRO
&NAME    GNOP4 &ADDR,&GROUP
&NAME    IHBGAM1 10944,&ADDR,&GROUP
         MEND

