.* MVS 3.8J PUBLIC DOMAIN
         MACRO
&NAME  GSRT
&NAME    IHBGAM2 10882
         MEND

