.* MVS 3.8J PUBLIC DOMAIN
         MACRO
&NAME    GTND  &ADDR,&GROUP   TRANSFER NO DETECT 2AFD
&NAME    IHBGAM1 11005,&ADDR,&GROUP
         MEND

