.* MVS 3.8J PUBLIC DOMAIN
         MACRO
&NAME    GTRU  &ADDR,&GROUP
&NAME    IHBGAM1 11007,&ADDR,&GROUP
         MEND

