.* MVS 3.8J PUBLIC DOMAIN
****   THIS IS START OF SPECIFICATIONS ****
*
*01*  MODULE-NAME = IHBRDWRA
*
*01*  DESCRIPTIVE-NAME = INNER MACRO FOR API REQUEST MACROS
*
*
*01*  STATUS = RELEASE 1
*
*01*  FUNCTION = GENERATE INLINE CODE FOR THE FOLLOWING REQUEST MACROS
*     THAT USE AN RPL: OPNDST,CLSDST,SIMLOGON,CHANGE,READ,WRITE,RESET,
*     SOLICIT,DO,INQUIRE,INTRPRET, SEND, RECEIVE, RESETSR,SESSIONC.
*     THE GENERATED CODE LOADS THE RPL ADDRESS INTO REGISTER 1,MODIFIES
*     RPL FIELDS AS INDICATED BY RPL MODIFIERS ON THE REQUEST MACRO,
*     LOADS A REQUEST CODE INTO REGISTER ZERO, AND BRANCHES TO THE
*     INTERFACE ROUTINE WHOSE ADDRESS IS IN THE ACB LOCATED VIA THE
*     RPL. ANY CODE MODIFYING THE RPL IS BYPASSED IF THE RPL IS
*     ALREADY ACTIVE.
*
*
*01*  NOTES = COMMON
*
*02*    CHARACTER-CODE-DEPENDENCIES = NONE
*02*    DEPENDENCIES = NONE
*02*    RESTRICTIONS = RPL KEYWORDS LEVENT AND GEVENT ARE VALID FOR
*       OS/VS2 ONLY.
*
*02*    REGISTER-CONVENTIONS = &REG IS THE SYMBOLIC PARAMETER USED TO
*       INDICATE THE REGISTER VALUE SPECIFIED FOR RPL KEYWORDS.
*
*02*    PATCH-LABEL = NONE
*
*01*  MODULE-TYPE = MACRO
*
*02*    PROCESSOR = ASSEMBLER
*
*02*    MACRO-SIZE = 1776 STATEMENTS
*
*02*    ATTRIBUTES = LIST-EXEC
*
*01*  ENTRY-POINT = NA
*
*01*  EXIT-NORMAL = NA
*
*01*  EXIT-ERROR = NA
*
*01*  EXTERNAL-REFERENCES = NONE
*01*  TABLES = WHEN THIS MACRO INVOKES ITSELF WITH 'OPTSCAN' SPECIFIED
*     (TO DO OPTION SCANNING) A TABLE OF INFORMATION
*     IS PASSED CONTAINING THE KEYWORD TO BE SCANNED AND ALL THE VALID
*     SUBPARAMETERS FOR THAT KEYWORD.
*01*  INNER-MACROS = NONE
*01*  SYSTEM-MACROS = INTERNALLY INVOKES ITSELF (IHBRDWRA) WITH
*                      'OPTSCAN' SPECIFIED.
*01*  CHANGE-ACTIVITY = NEW FOR RELEASE 1 OF VTAM
*            APAR OZ32709                                    @ZA32709
*            APAR OZ43509                                    @ZA43509
*
**** END OF SPECIFICATIONS ***/
         MACRO
&NAME    IHBRDWRA  &RPL=,&IHBRW=,&ACB=,&AREA=,&AREALEN=,&RECLEN=,      *
               &AAREA=,&AAREALN=,&ARECLEN=,&ECB=,&EXIT=,&CODESEL=,     *
               &OPTCD=,&ARG=,&NIB=,&BRANCH=,&OBSQVAL=,&SIGDATA=,       *
               &RESPOND=,&CONTROL=,&CHNGDIR=,&SSENSEO=,&STYPE=,        *
               &SEQNO=,&USENSEO=,&IBSQVAL=,&RTYPE=,&IBSQAC=,&SSENSMO=, *
               &OBSQAC=,&POST=,&CHAIN=,&OPTION=,&SCANOPT=,&BRACKET=
.*A-000000-999999                                              @XL03HMV
         GBLB  &IHBRPLY(20)
         GBLC  &IHBTBL(20)
         GBLA  &IHBNUM
         LCLA  &PLARG,&PLNIB,&PLAREA,&PLRLEN,&PLBUFL,&PLACTIV,&PLEXTDS
         LCLA  &PLOPTC1,&PLDACB,&PLECB,&PLAAREA,&PLAARLN,&PLARCLN
         LCLA  &ACBRTN,&SYN,&ASY,&POPTCD2,&POPTCD3,&OPTERR,&PLSSMO
         LCLA  &NUM,&LEN,&CNTINQ,&MSK1CTR,&MSK2CTR,&MSK3CTR,&MSK4CTR
.* *************** VTL ADDITIONS ****************
         LCLA  &NM,&NUM2,&PLRH3,&PLSRTYP,&PLVTFL2,&PLCHN,&PLCNTRL
         LCLA  &PLCNTDF,&PLCNTSC,&PLOBSQV,&PLIBSQV,&PLOBSQ,&PLIBSQ
         LCLA  &PLSEQNO,&PLSSNSO,&PLUSNSO,&PLCNTDC,&PLSSEO,&PLSIGDA
.* ************ END VTL ADDITIONS ***************
         LCLB  &CA,&CS,&PASS,&RELEASE,&NERASE,&EAU,&ERASE
         LCLB  &SPEC,&ANY,&NCONV,&CONV,&LBT,&LBM,&BLK,&COND,&UNCOND
         LCLB  &LOCK,&ACCEPT,&ACQUIRE,&QUIESCE,&START,&STOP
         LCLB  &CONALL,&CONANY,&Q,&NQ,&LGONMSG,&DEVCHAR,&TERMS,&APPSTAT
         LCLB  &COUNTS,&RNNAME,&CIDXLAT,&TOPLGON,&BSCID,&DISPLAY
         LCLB  &RELRQ,&NRELRQ,&UNCONDL,&ACTIVE,&SESSION,&PEND
         LCLB  &BIT0,&BIT01,&SPARM,&SPARM1
.* *************** VTL ADDITIONS ****************
         LCLB  &KEEP,&TRUNC,&NIBTK
         LCLB  &FMHDR,&NFMHDR
         LCLB  &KEEP1,&TRUNC1,&NIBTK1,&FMHDR1
         LCLC  &OPT1,&OPT,&CHAR1,&CHAR2,&CHAR3,&CHAR4
.* ************ END VTL ADDITIONS ***************
  LCLB  &CS1,&PASS1,&NERASE1,&EAU1,&ERASE1
  LCLB  &ANY1,&CONV1,&LBT1,&LBM1,&BLK1,&COND1,&UNCOND1
  LCLB  &LOCK1,&ACCEPT1,&ACQUIR1,&QUIESC1,&START1,&STOP1
  LCLB  &CONALL1,&CONANY1,&NQ1,&LGONMS1,&DEVCHR1,&TERMS1,&APSTAT1
  LCLB  &COUNTS1,&RNNAME1,&CIDXLT1,&TOPLGN1,&BSCID1,&DISPLY1
  LCLB  &NRELRQ1,&UNCNDL1,&ACTIVE1,&SESION1,&PEND1
.* ********** DISPLACEMENT OF RPL FIELDS **********
&PLARG   SETA  36    * THIS IS AN OS VTAM DISPLACEMENT *
&PLAREA  SETA  32    * THIS IS AN OS VTAM DISPLACEMENT *
&PLRLEN  SETA  48    * THIS IS AN OS VTAM DISPLACEMENT *
&PLBUFL  SETA  52 * JAN 12, 73 CODE ADDED AS A RESULT OF PTM____ *
&PLACTIV SETA  69     * THIS IS AN OS VTAM DISPLACEMENT *
&PLEXTDS SETA  68     * THIS IS AN OS VTAM DISPLACEMENT *
&PLOPTC1 SETA  40     * THIS IS AN OS VTAM DISPLACEMENT *
&POPTCD2 SETA  56     * THIS IS AN OS VTAM DISPLACEMENT *
&POPTCD3 SETA  96     * THIS IS AN OS VTAM DISPLACEMENT *
&PLDACB  SETA  24     * THIS IS AN OS VTAM DISPLACEMENT *
&PLECB   SETA  08     * THIS IS AN OS VTAM DISPLACEMENT *
&PLAAREA SETA  76     * THIS IS AN OS VTAM DISPLACEMENT *
&PLAARLN SETA  80     * THIS IS AN OS VTAM DISPLACEMENT *
&PLARCLN SETA  84     * THIS IS AN OS VTAM DISPLACEMENT *
.* *************** VTL ADDITIONS ****************
&PLRH3    SETA  16                       THIRD RH BYTE
&PLSRTYP  SETA  17                       SEND OR RECEIVE TYPE FIELD
&PLVTFL2  SETA  20                       VTAM FLAGS FIELD
&PLCHN    SETA  18                       POSITION IN RU CHAIN FIELD
&PLCNTRL  SETA  21                       RU CONTROL CODE FIELD
&PLCNTDF  SETA  21                       DATA FLOW CONTROL CODES FIELD
&PLCNTDC  SETA  22                       DATA FLOW CONTROL CODES FIELD
&PLCNTSC  SETA  23                       SESSION CONTROL CODES FIELD
&PLOBSQV  SETA  60                       STSN OUTBOUND SEQ. NO. FIELD
&PLIBSQV  SETA  62                       STSN INBOUND SEQ. NO. FIELD
&PLOBSQ   SETA  64                       STSN OUTBOUND ACTION CODES
&PLIBSQ   SETA  65                       STSN INBOUND ACTION CODES
&PLSEQNO  SETA  66                       SEQUENCE NUMBER FIELD
&PLSSNSO  SETA  100                      SYSTEM SENSE OUTPUT FIELD
&PLSSEO   SETA  100                      SYSTEM SENSE ERROR CODES
&PLSSMO   SETA  101                      SYSTEM SENSE ERROR CODES
&PLUSNSO  SETA  102                      USER SENSE OUTPUT FIELD
&PLSIGDA  SETA  108                      SIGNAL DATA FOUR BYTES@ZA32709
.* ************ END VTL ADDITIONS ***************
&ASY     SETA  00
&SYN     SETA  00
&BIT0    SETB  0
&CNTINQ  SETA  0
&MSK1CTR SETA  0
&MSK2CTR SETA  0
&MSK3CTR SETA  0
&MSK4CTR SETA  0
&OPTERR  SETA  0
&CA      SETB  0
&CS      SETB  0
&PASS    SETB  0
&RELEASE SETB  0
&NERASE  SETB  0
&EAU     SETB  0
&ERASE   SETB  0
&SPEC    SETB  0
&ANY     SETB  0
&NCONV   SETB  0
&CONV    SETB  0
&BLK     SETB  0
&LBM     SETB  0
&LBT     SETB  0
&COND    SETB  0
&UNCOND  SETB  0
&LOCK    SETB  0
&ACCEPT  SETB  0
&ACQUIRE SETB  0
&CONALL  SETB  0
&CONANY  SETB  0
&QUIESCE SETB  0
&START   SETB  0
&STOP    SETB  0
&LGONMSG SETB  0
&DEVCHAR SETB  0
&TERMS   SETB  0
&APPSTAT SETB  0
&COUNTS  SETB  0
&RNNAME  SETB  0
&CIDXLAT SETB  0
&TOPLGON SETB  0
&BSCID   SETB  0
&DISPLAY SETB  0
&SPARM   SETB  0
&Q       SETB  0
&NQ      SETB  0
&RELRQ   SETB  0
&NRELRQ  SETB  0
&PEND    SETB  0
&SESSION SETB  0
&ACTIVE  SETB  0
&UNCONDL SETB  0
.* *************** VTL ADDITIONS ****************
&KEEP    SETB  0
&TRUNC   SETB  0
&NIBTK   SETB  0
&FMHDR   SETB  0
&NFMHDR  SETB  0
&KEEP1      SETB  1
&TRUNC1     SETB  1
&NIBTK1     SETB  1
&FMHDR1     SETB  1
.* ************ END VTL ADDITIONS ***************
&BIT01      SETB  1
&CS1        SETB  1
&PASS1      SETB  1
&NERASE1    SETB  1
&EAU1       SETB  1
&ERASE1     SETB  1
&ANY1       SETB  1
&CONV1      SETB  1
&LBT1       SETB  1
&LBM1       SETB  1
&BLK1       SETB  1
&COND1      SETB  1
&UNCOND1    SETB  1
&LOCK1      SETB  1
&ACCEPT1    SETB  1
&ACQUIR1    SETB  1
&CONALL1    SETB  1
&CONANY1    SETB  1
&QUIESC1    SETB  1
&START1     SETB  1
&STOP1      SETB  1
&LGONMS1    SETB  1
&DEVCHR1    SETB  1
&TERMS1     SETB  1
&APSTAT1    SETB  1
&COUNTS1    SETB  1
&RNNAME1    SETB  1
&CIDXLT1    SETB  1
&TOPLGN1    SETB  1
&BSCID1     SETB  1
&DISPLY1    SETB  1
&SPARM1     SETB  1
&NQ1        SETB  1
&NRELRQ1    SETB  1
&PEND1      SETB  1
&SESION1    SETB  1
&ACTIVE1    SETB  1
&UNCNDL1    SETB  1
&ACBRTN  SETA  8   DISPLACEMENT IN ACB OF THE ADDR OF THE INTERFACE RTN
         AIF   ('&SCANOPT' NE '').OPTSCAN  RECURSIVE CALL TO OPTSCAN?
         AIF   ('&RPL' EQ '').NORPL  THIS IS AN ERROR CONDITION
.* ********************************************************************
.*                        GETRPL SUBROUTINE
.* GENERATES CODE TO LOAD THE ADDRESS OF THE RPL INTO REGISTER 1
.* ********************************************************************
.GETRPL  ANOP
         AIF   ('&RPL'(1,1) NE '(').GEN1  THIS BR FOR NON REG FORM
         AIF   ('&RPL' EQ '(1)').ENDRPL   NO LR INSTRUCTION NECESSARY
&NAME    LR    1,&RPL(1)             PUT ADDRESS OF RPL IN REGISTER 1
         CNOP  0,4
         AGO   .ENDRPL1
.GEN1    ANOP
         CNOP  0,4
&NAME    LA    1,&RPL                PUT ADDRESS OF RPL IN REGISTER 1
         AGO   .ENDRPL1
.ENDRPL  ANOP
         CNOP  0,4
         AIF   ('&NAME' EQ '').ENDRPL1
&NAME    EQU   *
.ENDRPL1 ANOP
         AIF   ('&ACB' NE '' OR '&AREA' NE '' OR '&AREALEN' NE '').GEN
         AIF   ('&ECB' NE '' OR '&AAREA' NE '' OR '&RECLEN' NE '').GEN
         AIF   ('&ARG' NE '' OR '&OPTCD' NE '' OR '&AAREALN' NE '').GEN
         AIF   ('&NIB' NE '' OR '&EXIT' NE '').GEN
         AIF   ('&ARECLEN' NE '' OR '&BRANCH' NE '').GEN
         AIF   ('&SIGDATA' NE '' OR '&AREALEN' NE '').GEN
.* *************** VTL ADDITIONS ****************
         AIF   ('&RESPOND' NE '' OR '&CONTROL' NE '').GEN
         AIF   ('&CHNGDIR' NE '' OR '&SSENSEO' NE '').GEN
         AIF   ('&STYPE' NE '' OR '&RTYPE' NE '' ).GEN
         AIF   ('&IBSQAC' NE '' OR '&OBSQAC' NE '').GEN
         AIF   ('&POST' NE '' OR '&CHAIN' NE '').GEN
         AIF   ('&SEQNO' NE '' OR '&USENSEO' NE '').GEN
         AIF   ('&IBSQVAL' NE '' OR '&OBSQVAL' NE '').GEN
         AIF   ('&SSENSMO' NE '' OR '&BRACKET' NE '').GEN
.* ************ END VTL ADDITIONS ***************
         AGO   .GENREQ
.* ********************************************************************
.*                     MDFYRPL SUBROUTINE
.* GENERATES CODE TO MODIFY RPL FIELDS AT EXECUTION TIME.  INVOKES THE
.* FOLLOWING SUBROUTINES: MDFYOPT, GENMSK, MDFYRECD, AND THROUGH MDFY-
.* RECD, MDFYRESP, MDFYCHN, MDFYCTRL, MDFYCDIR, MDFYSSNS, MDFYRTYP,
.*                MDFYIBSQ, MDFYOBSQ, AND OPTSCAN.
.* ********************************************************************
.GEN     ANOP
         TM    &PLACTIV.(1),X'FF'     IS THE RPL ACTIVE?
         BO    IHB&SYSNDX            YES BR AROUND MODIFY CODE
.CKACB   ANOP
         AIF   ('&ACB' EQ '').CKAREA IS THERE AN ACB PARAMETER?
         AIF   ('&ACB'(1,1) NE '(').GEN2  REGISTER NOTATION?
         ST    &ACB(1),&PLDACB.(1)   PUT ACB ADDRESS IN THE RPL
         AGO   .CKAREA
.GEN2    ANOP
         LA    15,&ACB               GET ADDRESS OF NEW ACB
         ST 15,&PLDACB.(1)           AND PUT IT IN THE RPL
.CKAREA  ANOP
         AIF   ('&AREA' EQ '').CKALEN  IS THERE AN AREA PARAMETER?
         AIF   ('&AREA'(1,1) NE '(').GEN3  REGISTER NOTATION?
         ST    &AREA(1),&PLAREA.(1)  PUT ADDRESS OF AREA IN THE RPL
         AGO   .CKALEN
.GEN3    ANOP
         LA    15,&AREA              GET ADDRESS OF NEW AREA
         ST    15,&PLAREA.(1)         AND PUT IT IN THE RPL
.CKALEN  ANOP
         AIF   ('&AREALEN' EQ '').CKRLEN  IS THERE AN AREA LENGTH PARM?
         AIF   ('&AREALEN'(1,1) NE '(').GEN4  REGISTER NOTATION?
         ST    &AREALEN(1),&PLBUFL.(1)     PUT AREA LENGTH IN THE RPL
         AGO   .CKRLEN
.GEN4    ANOP
         B     *+8
         DC    A(&AREALEN)
         L     15,*-4                GET NEW AREA LENGTH
         ST    15,&PLBUFL.(1)        AND PUT IT IN THE RPL
.CKRLEN  ANOP
         AIF   ('&RECLEN' EQ '').CKAAR  IS THERE A RECORD LENGTH PARM?
         AIF   ('&RECLEN'(1,1) NE '(').GEN5  REGISTER NOTATION?
         ST    &RECLEN(1),&PLRLEN.(1)  PUT NEW RECORD LENGTH IN THE RPL
         AGO   .CKAAR
.GEN5    ANOP
         B     *+8
         DC    A(&RECLEN)
         L     15,*-4                GET NEW RECORD LENGTH
         ST    15,&PLRLEN.(1)        AND PUT IT IN THE RPL
.CKAAR   ANOP
         AIF   ('&AAREA' EQ '').CKAALN  IS THERE AN AAREA PARM?
         AIF   ('&AAREA'(1,1) NE '(').GEN6  REGISTER NOTATION?
         ST    &AAREA(1),&PLAAREA.(1)  PUT AAREA ADDRESS IN THE RPL
         AGO   .CKAALN
.GEN6    ANOP
         LA    15,&AAREA             GET ADDRESS OF AAREA
         ST    15,&PLAAREA.(1)       AND PUT IT IN THE RPL
.CKAALN  ANOP
         AIF   ('&AAREALN' EQ '').CKARLN  IS THERE AN AAREALN PARM?
         AIF   ('&AAREALN'(1,1) NE '(').GEN7  REGISTER NOTATION?
         ST    &AAREALN(1),&PLAARLN.(1)   PUT AAREA LENGTH IN THE RPL
         AGO   .CKARLN
.GEN7    ANOP
         B     *+8
         DC    A(&AAREALN)
         L     15,*-4                GET NEW AAREA LENGTH
         ST    15,&PLAARLN.(1)       AND PUT IT IN THE RPL
.CKARLN  ANOP
         AIF   ('&ARECLEN' EQ '').CKARG  IS THERE AN ARECORD LNG PARM?
         AIF   ('&ARECLEN'(1,1) NE '(').GEN8  REGISTER NOTATION?
         ST    &ARECLEN(1),&PLARCLN.(1)  PUT ARECORD LENGTH IN THE RPL
         AGO   .CKARG
.GEN8    ANOP
         B     *+8
         DC    A(&ARECLEN)
         L     15,*-4                GET NEW ARECORD LENGTH
         ST    15,&PLARCLN.(1)       AND PUT IT IN THE RPL
.CKARG   ANOP
         AIF   ('&ARG' NE '' AND '&NIB' NE '').CKARGER  IS THERE AN ARG
         AIF   ('&ARG' EQ '').CKNIB  IS THERE AN ARG PARAMETER?
         AIF   ('&ARG'(1,1) NE '(').GEN9  REGISTER NOTATION?
         ST    &ARG(1),&PLARG.(1)    PUT NEW ARGUMENT IN THE RPL
         NI    &PLEXTDS.(1),X'FB'     SET NIB POINTER OFF
         AGO   .CKECB
.CKNIB   ANOP
         AIF   ('&NIB' EQ '').CKECB  IS THERE AN NIB PARAMETER?
         AIF   ('&NIB'(1,1) NE '(').CKNIB1  REGISTER NOTATION?
         ST    &NIB(1),&PLARG.(1)    PUT NIB POINTER IN THE RPL
         OI    &PLEXTDS.(1),X'04'     SET NIB POINTER ON
         AGO   .CKECB
.CKNIB1  ANOP
         LA    15,&NIB               GET NEW NIB POINTER
         ST    15,&PLARG.(1)         AND PUT IT IN THE RPL
         OI    &PLEXTDS.(1),X'04'     SET NIB POINTER ON
         AGO   .CKECB
.CKARGER ANOP
  MNOTE 0,'PARAMETERS ARG AND NIB CONFLICT - BOTH DISREGARDED'
         AGO   .CKECB
.GEN9    ANOP
  MNOTE 0,'PARAMETER ARG DOES NOT REFLECT REGISTER NOTATION - IGNORED'
.CKECB   ANOP
         AIF   ('&ECB' NE '' AND '&EXIT' NE '').GEN10  BOTH SPECIFIED?
         AIF   ('&ECB' NE '').ECBGEN  NO - IF ECB= WAS SPECIFIED, BR
         AIF   ('&EXIT' EQ '').CKOPTCD  EXIT= SPECIFIED?  NO - BRANCH
         AIF   ('&EXIT'(1,1) EQ '(').GEN10A  YES - REGISTER NOTATION?
         LA    15,&EXIT              GET ADDRESS OF EXIT ROUTINE
         ST    15,&PLECB.(1)         AND PUT IT IN THE RPL
         AGO   .FLGSETA
.GEN10A  ANOP
         ST    &EXIT(1),&PLECB.(1)  PUT EXIT ROUTINE ADDRESS IN THE RPL
.FLGSETA ANOP
         NI    &PLOPTC1.(1),X'FE'        SET ECB FLAG OFF
         NI    &PLEXTDS.(1),X'BF'      SET NOEXIT BIT OFF
         OI    &PLEXTDS.(1),X'20'      SET EXIT BIT ON
         AGO   .CKOPTCD
.ECBGEN  ANOP
         AIF   ('&ECB' EQ 'INTERNAL').FLGSETC    INTERNAL ECB SPECIFIED
         AIF   ('&ECB'(1,1) EQ '(').GEN10B  REGISTER NOTATION? YES - BR
         LA    15,&ECB               GET ADDRESS OF ECB
         ST    15,&PLECB.(1)         AND PUT IT IN THE RPL
         AGO   .FLGSETB
.GEN10B  ANOP
         ST    &ECB(1),&PLECB.(1)    PUT NEW ECB ADDRESS IN THE RPL
.FLGSETB ANOP
         OI    &PLOPTC1.(1),X'01'        SET ECB FLAG ON
         OI    &PLEXTDS.(1),X'40'      SET NOEXIT BIT ON
         NI    &PLEXTDS.(1),X'DF'      SET EXIT BIT OFF
         AGO   .CKOPTCD
.GEN10   ANOP
        MNOTE 4,'ECB AND EXIT MUTUALLY EXCLUSIVE; INTERNAL ECB ASSUMED'
.FLGSETC ANOP
         NI    &PLOPTC1.(1),X'FE'        SET ECB FLAG OFF
         OI    &PLEXTDS.(1),X'40'      SET NOEXIT BIT ON
         NI    &PLEXTDS.(1),X'DF'      SET EXIT BIT OFF
.* ********************************************************************
.*                       MDFYOPT SUBROUTINE
.* VALIDITY CHECKS OPTCD OPTIONS AND SETS SWITCHES IN A MASK.  INVOKES
.* GENMASK TO GENERATE CODE IF REQUIRED.  ISSUES MNOTES FOR INVALID
.*                   OPTIONS THAT ARE SPECIFIED.
.* ********************************************************************
.CKOPTCD ANOP
         AIF   ('&OPTCD' EQ '').CKSEQNO
&NUM     SETA N'&OPTCD
.SETOPT   ANOP
&LEN     SETA K'&OPTCD(&NUM)
         AIF  ('&OPTCD(&NUM)'(1,1) EQ 'N').NOPTS
         AIF  ('&OPTCD(&NUM)'(1,1) EQ 'C').COPTS
         AIF  ('&OPTCD(&NUM)'(1,1) EQ 'E').EOPTS
         AIF  ('&OPTCD(&NUM)'(1,1) EQ 'A').AOPTS
         AIF  ('&OPTCD(&NUM)'(1,1) NE 'S').XOPTS
         AIF ('&OPTCD(&NUM)'(1,&LEN) NE 'SPEC').SOPTS1
&SPEC    SETB 1
&ANY1    SETB 0
&MSK2CTR SETA  &MSK2CTR+1
         AGO  .GETNEXT
.SOPTS1  ANOP
         AIF  ('&OPTCD(&NUM)'(1,&LEN) NE 'SYN').SOPTS2
&SYN     SETA 1
         AGO  .GETNEXT
.SOPTS2  ANOP
         AIF  ('&OPTCD(&NUM)'(1,&LEN) NE 'SESSION').SOPTS3
&SESSION SETB 1
&PEND1   SETB 0
&SESION1 SETB 0
&ACTIVE1 SETB 0
&UNCNDL1 SETB 0
&MSK1CTR SETA  &MSK1CTR+1
&MSK2CTR SETA  &MSK2CTR+1
         AGO  .GETNEXT
.SOPTS3  ANOP
         AIF  ('&OPTCD(&NUM)'(1,&LEN) NE 'START').SOPTS4
&START   SETB 1
&START1  SETB 0
&STOP1   SETB 0
&QUIESC1 SETB 0
&MSK3CTR SETA  &MSK3CTR+1
&MSK4CTR SETA  &MSK4CTR+1
         AGO  .GETNEXT
.SOPTS4  ANOP
         AIF  ('&OPTCD(&NUM)'(1,&LEN) NE 'STOP').SOPTS5
&STOP    SETB 1
&START1  SETB 0
&STOP1   SETB 0
&QUIESC1 SETB 0
&MSK3CTR SETA  &MSK3CTR+1
&MSK4CTR SETA  &MSK4CTR+1
         AGO  .GETNEXT
.SOPTS5  ANOP
         AIF  ('&OPTCD(&NUM)'(1,&LEN) NE 'SESSPARM').SOPTS6
&SPARM   SETB 1
&CNTINQ  SETA &CNTINQ+1
         AGO  .GETNEXT
.SOPTS6  ANOP
         AGO  .INVLDOP
.XOPTS   ANOP
         AIF  ('&OPTCD(&NUM)'(1,&LEN) NE 'UNCONDL').XOPTS1A
&UNCONDL SETB 1
&PEND1   SETB 0
&SESION1 SETB 0
&ACTIVE1 SETB 0
&UNCNDL1 SETB 0
&MSK1CTR SETA  &MSK1CTR+1
&MSK2CTR SETA  &MSK2CTR+1
         AGO  .GETNEXT
.XOPTS1A ANOP
         AIF  ('&OPTCD(&NUM)'(1,&LEN) NE 'UNCOND').XOPTS1
&UNCOND  SETB 1
&UNCOND1 SETB 0
&COND1   SETB 0
&LOCK1   SETB 0
&MSK1CTR SETA  &MSK1CTR+1
&MSK2CTR SETA  &MSK2CTR+1
         AGO  .GETNEXT
.XOPTS1  ANOP
         AIF  ('&OPTCD(&NUM)'(1,&LEN) NE 'PEND').XOPTS2
&PEND    SETB 1
&PEND1   SETB 0
&SESION1 SETB 0
&ACTIVE1 SETB 0
&UNCNDL1 SETB 0
&MSK1CTR SETA  &MSK1CTR+1
&MSK2CTR SETA  &MSK2CTR+1
         AGO  .GETNEXT
.XOPTS2  ANOP
         AIF  ('&OPTCD(&NUM)'(1,&LEN) NE 'PASS').XOPTS3
&PASS    SETB 1
&PASS1   SETB 0
&MSK1CTR SETA  &MSK1CTR+1
&MSK2CTR SETA  &MSK2CTR+1
         AGO  .GETNEXT
.XOPTS3  ANOP
         AIF  ('&OPTCD(&NUM)'(1,&LEN) NE 'LOCK').XOPTS4
&LOCK    SETB 1
&LOCK1   SETB 0
&COND1   SETB 0
&UNCOND1  SETB 0
&MSK1CTR SETA  &MSK1CTR+1
&MSK2CTR SETA  &MSK2CTR+1
         AGO  .GETNEXT
.XOPTS4  ANOP
         AIF  ('&OPTCD(&NUM)'(1,&LEN) NE 'QUIESCE').XOPTS5
&QUIESCE SETB 1
&START1  SETB 0
&STOP1   SETB 0
&QUIESC1 SETB 0
&MSK3CTR SETA  &MSK3CTR+1
&MSK4CTR SETA  &MSK4CTR+1
         AGO  .GETNEXT
.XOPTS5  ANOP
         AIF  ('&OPTCD(&NUM)'(1,1) NE 'Q').XOPTS6
&Q       SETB 1
&NQ1     SETB 0
&MSK1CTR SETA  &MSK1CTR+1
&MSK2CTR SETA  &MSK2CTR+1
         AGO  .GETNEXT
.XOPTS6  ANOP
         AIF  ('&OPTCD(&NUM)'(1,&LEN) NE 'RELRQ').XOPTS7
&RELRQ  SETB 1
&NRELRQ1 SETB 0
&MSK1CTR SETA  &MSK1CTR+1
&MSK2CTR SETA  &MSK2CTR+1
         AGO  .GETNEXT
.XOPTS7  ANOP
         AIF ('&OPTCD(&NUM)'(1,&LEN) NE 'RELEASE').XOPTS8
&RELEASE   SETB 1
&MSK2CTR SETA  &MSK2CTR+1
&PASS1   SETB 0
         AGO  .GETNEXT
.XOPTS8  ANOP
         AIF  ('&OPTCD(&NUM)'(1,&LEN) NE 'BLK').XOPTS9
&BLK     SETB 1
&BLK1    SETB 0
&LBT1    SETB 0
&LBM1    SETB 0
&MSK1CTR SETA  &MSK1CTR+1
&MSK2CTR SETA  &MSK2CTR+1
         AGO  .GETNEXT
.XOPTS9  ANOP
         AIF  ('&OPTCD(&NUM)'(1,&LEN) NE 'LBM').XOPTSA
&LBM     SETB 1
&LBM1    SETB 0
&LBT1    SETB 0
&BLK1    SETB 0
&MSK1CTR SETA  &MSK1CTR+1
&MSK2CTR SETA  &MSK2CTR+1
         AGO  .GETNEXT
.XOPTSA  ANOP
         AIF  ('&OPTCD(&NUM)'(1,&LEN) NE 'LBT').XOPTSB
&LBT     SETB 1
&LBT1    SETB 0
&LBM1    SETB 0
&BLK1    SETB 0
&MSK1CTR SETA  &MSK1CTR+1
&MSK2CTR SETA  &MSK2CTR+1
         AGO  .GETNEXT
.XOPTSB  ANOP
         AIF  ('&OPTCD(&NUM)'(1,&LEN) NE 'LOGONMSG').XOPTSD
&LGONMSG SETB 1
&CNTINQ  SETA &CNTINQ+1
         AGO  .GETNEXT
.XOPTSD  ANOP
         AIF  ('&OPTCD(&NUM)'(1,&LEN) NE 'DEVCHAR').XOPTSE
&DEVCHAR SETB 1
&CNTINQ  SETA &CNTINQ+1
         AGO  .GETNEXT
.XOPTSE  ANOP
         AIF  ('&OPTCD(&NUM)'(1,&LEN) NE 'TERMS').XOPTSF
&TERMS   SETB 1
&CNTINQ  SETA &CNTINQ+1
         AGO  .GETNEXT
.XOPTSF  ANOP
         AIF  ('&OPTCD(&NUM)'(1,&LEN) NE 'RNNAME').XOPTSG
&RNNAME  SETB 1
&CNTINQ  SETA &CNTINQ+1
         AGO  .GETNEXT
.XOPTSG  ANOP
         AIF  ('&OPTCD(&NUM)'(1,&LEN) NE 'TOPLOGON').XOPTSH
&TOPLGON SETB 1
&CNTINQ  SETA &CNTINQ+1
         AGO  .GETNEXT
.XOPTSH  ANOP
         AIF  ('&OPTCD(&NUM)'(1,&LEN) NE 'BSCID').XOPTSI
&BSCID   SETB 1
&CNTINQ  SETA &CNTINQ+1
         AGO  .GETNEXT
.XOPTSI  ANOP
         AIF  ('&OPTCD(&NUM)'(1,&LEN) NE 'DISPLAY').XOPTSJ
&DISPLAY SETB 1
&CNTINQ  SETA &CNTINQ+1
         AGO  .GETNEXT
.XOPTSJ  ANOP
.* *************** VTL ADDITIONS ****************
         AIF  ('&OPTCD(&NUM)'(1,&LEN) NE 'KEEP').XOPTSL
&KEEP    SETB 1
&KEEP1   SETB 0
&TRUNC1  SETB 0
&NIBTK1  SETB 0
&MSK3CTR SETA  &MSK3CTR+1
&MSK4CTR SETA  &MSK4CTR+1
         AGO  .GETNEXT
.XOPTSL  ANOP
         AIF  ('&OPTCD(&NUM)'(1,&LEN) NE 'TRUNC').XOPTSM
&TRUNC   SETB 1
&TRUNC1  SETB 0
&NIBTK1  SETB 0
&KEEP1   SETB 0
&MSK3CTR SETA  &MSK3CTR+1
&MSK4CTR SETA  &MSK4CTR+1
         AGO  .GETNEXT
.XOPTSM  ANOP
         AIF  ('&OPTCD(&NUM)'(1,&LEN) NE 'FMHDR').XOPTSN
&FMHDR   SETB 1
&FMHDR1  SETB 0
&NFMHDR  SETB 0
&MSK3CTR SETA  &MSK3CTR+1
&MSK4CTR SETA  &MSK4CTR+1
         AGO  .GETNEXT
.XOPTSN  ANOP
.* ************ END VTL ADDITIONS ***************
.INVLDOP ANOP
     MNOTE 0,'OPTCD=&OPTCD(&NUM) IS NOT A VALID PARAMETER - IGNORED '
         AGO .GETNEXT
.NOPTS   ANOP
.* *************** VTL ADDITIONS ****************
         AIF  ('&OPTCD(&NUM)'(1,&LEN) NE 'NIBTK').NOPTS2
&NIBTK   SETB 1
&NIBTK1  SETB 0
&KEEP1   SETB 0
&TRUNC1  SETB 0
&MSK3CTR SETA  &MSK3CTR+1
&MSK4CTR SETA  &MSK4CTR+1
         AGO  .GETNEXT
.NOPTS2  ANOP
.* ************ END VTL ADDITIONS ***************
         AIF  ('&OPTCD(&NUM)'(1,&LEN) NE 'NERASE').NOPTS3
&NERASE  SETB 1
&NERASE1 SETB 0
&EAU1    SETB 0
&ERASE1  SETB 0
&MSK1CTR SETA  &MSK1CTR+1
&MSK2CTR SETA  &MSK2CTR+1
         AGO  .GETNEXT
.NOPTS3  ANOP
         AIF  ('&OPTCD(&NUM)'(1,&LEN) NE 'NCONV').NOPTS4
&NCONV   SETB 1
&CONV1   SETB 0
&MSK2CTR SETA  &MSK2CTR+1
         AGO  .GETNEXT
.NOPTS4  ANOP
.* *************** VTL ADDITIONS ****************
         AIF  ('&OPTCD(&NUM)'(1,&LEN) NE 'NFMHDR').NOPTS5
&NFMHDR  SETB 1
&FMHDR1  SETB 0
&MSK4CTR SETA  &MSK4CTR+1
         AGO  .GETNEXT
.NOPTS5  ANOP
.* *********** END VTL ADDITIONS ****************
         AIF  ('&OPTCD(&NUM)'(1,&LEN) NE 'NQ').NOPTS6
&NQ      SETB 1
&NQ1     SETB 0
&MSK2CTR SETA  &MSK2CTR+1
         AGO  .GETNEXT
.NOPTS6  ANOP
         AIF  ('&OPTCD(&NUM)'(1,&LEN) NE 'NRELRQ').NOPTS8
&NRELRQ SETB 1
&NRELRQ1 SETB 0
&MSK2CTR SETA  &MSK2CTR+1
         AGO  .GETNEXT
.NOPTS8  ANOP
         AGO  .INVLDOP
.COPTS   ANOP
         AIF  ('&OPTCD(&NUM)'(1,&LEN) NE 'CS').COPTS2
&CS      SETB 1
&CS1     SETB 0
&MSK1CTR SETA  &MSK1CTR+1
&MSK2CTR SETA  &MSK2CTR+1
         AGO  .GETNEXT
.COPTS2  ANOP
         AIF  ('&OPTCD(&NUM)'(1,&LEN) NE 'COND').COPTS3
&COND    SETB 1
&COND1   SETB 0
&LOCK1   SETB 0
&UNCOND1  SETB 0
&MSK1CTR SETA  &MSK1CTR+1
&MSK2CTR SETA  &MSK2CTR+1
         AGO  .GETNEXT
.COPTS3  ANOP
         AIF  ('&OPTCD(&NUM)'(1,&LEN) NE 'CONV').COPTS4
&CONV    SETB 1
&CONV1   SETB 0
&MSK1CTR SETA  &MSK1CTR+1
&MSK2CTR SETA  &MSK2CTR+1
         AGO  .GETNEXT
.COPTS4  ANOP
         AIF  ('&OPTCD(&NUM)'(1,&LEN) NE 'CONALL').COPTS5
&CONALL  SETB 1
&CONALL1 SETB 0
&CONANY1 SETB 0
&MSK1CTR SETA  &MSK1CTR+1
&MSK2CTR SETA  &MSK2CTR+1
         AGO  .GETNEXT
.COPTS5  ANOP
         AIF  ('&OPTCD(&NUM)'(1,&LEN) NE 'CONANY').COPTS6
&CONANY  SETB 1
&CONANY1 SETB 0
&CONALL1 SETB 0
&MSK1CTR SETA  &MSK1CTR+1
&MSK2CTR SETA  &MSK2CTR+1
         AGO  .GETNEXT
.COPTS6  ANOP
         AIF  ('&OPTCD(&NUM)'(1,&LEN) NE 'CA').COPTS7
&CA      SETB 1
&CS1     SETB 0
&MSK2CTR SETA  &MSK2CTR+1
         AGO  .GETNEXT
.COPTS7  ANOP
         AIF  ('&OPTCD(&NUM)'(1,&LEN) NE 'COUNTS').COPTS8
&COUNTS  SETB 1
&CNTINQ  SETA &CNTINQ+1
         AGO  .GETNEXT
.COPTS8  ANOP
         AIF  ('&OPTCD(&NUM)'(1,&LEN) NE 'CIDXLATE').COPTS9
&CIDXLAT SETB 1
&CNTINQ  SETA &CNTINQ+1
         AGO  .GETNEXT
.COPTS9  ANOP
         AGO  .INVLDOP
.EOPTS   ANOP
         AIF  ('&OPTCD(&NUM)'(1,&LEN) NE 'EAU').EOPTS3
&EAU     SETB 1
&EAU1    SETB 0
&ERASE1  SETB 0
&NERASE1 SETB 0
&MSK1CTR SETA  &MSK1CTR+1
&MSK2CTR SETA  &MSK2CTR+1
         AGO  .GETNEXT
.EOPTS3  ANOP
         AIF  ('&OPTCD(&NUM)'(1,&LEN) NE 'ERASE').EOPTS4
&ERASE   SETB 1
&ERASE1  SETB 0
&EAU1    SETB 0
&NERASE1 SETB 0
&MSK1CTR SETA  &MSK1CTR+1
&MSK2CTR SETA  &MSK2CTR+1
         AGO  .GETNEXT
.EOPTS4  ANOP
         AGO  .INVLDOP
.AOPTS   ANOP
         AIF ('&OPTCD(&NUM)'(1,&LEN) NE 'ANY').AOPTS1
&ANY     SETB 1
&ANY1    SETB 0
&MSK1CTR SETA  &MSK1CTR+1
&MSK2CTR SETA  &MSK2CTR+1
         AGO  .GETNEXT
.AOPTS1  ANOP
         AIF  ('&OPTCD(&NUM)'(1,&LEN) NE 'ACCEPT').AOPTS2
&ACCEPT  SETB 1
&ACCEPT1 SETB 0
&ACQUIR1 SETB 0
&MSK1CTR SETA  &MSK1CTR+1
&MSK2CTR SETA  &MSK2CTR+1
         AGO  .GETNEXT
.AOPTS2  ANOP
         AIF  ('&OPTCD(&NUM)'(1,&LEN) NE 'ACQUIRE').AOPTS3
&ACQUIRE SETB 1
&ACCEPT1 SETB 0
&ACQUIR1 SETB 0
&MSK1CTR SETA  &MSK1CTR+1
&MSK2CTR SETA  &MSK2CTR+1
         AGO  .GETNEXT
.AOPTS3  ANOP
         AIF  ('&OPTCD(&NUM)'(1,&LEN) NE 'ASY').AOPTS4
&ASY     SETA 1
         AGO  .GETNEXT
.AOPTS4  ANOP
         AIF  ('&OPTCD(&NUM)'(1,&LEN) NE 'ACTIVE').AOPTS5
&ACTIVE  SETB 1
&PEND1   SETB 0
&SESION1 SETB 0
&ACTIVE1 SETB 0
&UNCNDL1 SETB 0
&MSK1CTR SETA  &MSK1CTR+1
&MSK2CTR SETA  &MSK2CTR+1
         AGO  .GETNEXT
.AOPTS5  ANOP
         AIF  ('&OPTCD(&NUM)'(1,&LEN) NE 'APPSTAT').AOPTS6
&APPSTAT SETB 1
&CNTINQ  SETA &CNTINQ+1
         AGO  .GETNEXT
.AOPTS6  ANOP
         AGO  .INVLDOP
.GETNEXT ANOP
&NUM     SETA  &NUM-1
         AIF   ('&NUM' NE '0').SETOPT
.* ********************************************************************
.*                      GENMSK SUBROUTINE
.* CHECKS FOR MUTUALLY EXCLUSIVE OPTIONS (OF OPTCD) AND GENERATES CODE
.* TO MODIFY THE OPTION BYTES IN THE RPL.  ISSUES MNOTES FOR MUTUALLY
.*                       EXCLUSIVE OPTIONS.
.* ********************************************************************
.GENMSK  ANOP
         AIF  ('&SYN' EQ '1' AND '&ASY' EQ '1').CNFLCT1
         AIF  ('&SYN' NE '1' AND '&ASY' NE '1').MODOPT
         AIF  ('&ASY' EQ '1').ASYSW
         NI    &PLOPTC1.(1),X'F7'     TURN OFF THE ASY BIT
         AGO   .MODOPT
.ASYSW   ANOP
         OI    &PLOPTC1.(1),X'08'     TURN ON THE ASY BIT
         AGO   .MODOPT
.CNFLCT1 ANOP
     MNOTE 0,'PARAMETERS SYN AND ASY CONFLICT BOTH DISREGARDED'
.MODOPT  ANOP
         AIF  ('&SPEC' EQ '1' AND '&ANY' EQ '1').CNFLCT2
.MODOPT2 ANOP
         AIF  ('&STOP' EQ '1' AND '&START' EQ '1').CNFLCT3
         AIF  ('&STOP' EQ '1' AND '&QUIESCE' EQ '1').CNFLCT3
         AIF  ('&QUIESCE' EQ '1' AND '&START' EQ '1').CNFLCT3
.MODOPT3 ANOP
         AIF  ('&CONV' EQ '1' AND '&NCONV' EQ '1').CNFLCT4
.MODOPT4 ANOP
         AIF  ('&PASS' EQ '1' AND '&RELEASE' EQ '1').CNFLCT5
.MODOPT5 ANOP
         AIF  ('&CA' EQ '1' AND '&CS' EQ '1').CNFLCT6
.MODOPT6 ANOP
         AIF  ('&ACCEPT' EQ '1' AND '&ACQUIRE' EQ '1').CNFLCT7
.MODOPT7 ANOP
         AIF  ('&Q' EQ '1' AND '&NQ' EQ '1').CNFLCT8
.MODOPT8 ANOP
         AIF  ('&RELRQ' EQ '1' AND '&NRELRQ' EQ '1').CNFLCT9
.MODOPT9 ANOP
         AIF  ('&ERASE' EQ '1' AND '&EAU' EQ '1').CNFLCTB
         AIF  ('&ERASE' EQ '1' AND '&NERASE' EQ '1').CNFLCTB
         AIF  ('&EAU' EQ '1' AND '&NERASE' EQ '1').CNFLCTB
.MODOPTB ANOP
         AIF  ('&BLK' EQ '1' AND '&LBM' EQ '1').CNFLCTC
         AIF  ('&BLK' EQ '1' AND '&LBT' EQ '1').CNFLCTC
         AIF  ('&LBM' EQ '1' AND '&LBT' EQ '1').CNFLCTC
.MODOPTC ANOP
         AIF  ('&LOCK' EQ '1' AND '&COND' EQ '1').CNFLCTD
         AIF  ('&LOCK' EQ '1' AND '&UNCOND' EQ '1').CNFLCTD
         AIF  ('&COND' EQ '1' AND '&UNCOND' EQ '1').CNFLCTD
.MODOPTD ANOP
         AIF  ('&CONALL' EQ '1' AND '&CONANY' EQ '1').CNFLCTE
.MODOPTE ANOP
         AIF  ('&PEND' EQ '1' AND '&SESSION' EQ '1').CNFLCTF
         AIF  ('&PEND' EQ '1' AND '&ACTIVE' EQ '1').CNFLCTF
         AIF  ('&PEND' EQ '1' AND '&UNCONDL' EQ '1').CNFLCTF
         AIF  ('&ACTIVE' EQ '1' AND '&SESSION' EQ '1').CNFLCTF
         AIF  ('&ACTIVE' EQ '1' AND '&UNCONDL' EQ '1').CNFLCTF
         AIF  ('&SESSION' EQ '1' AND '&UNCONDL' EQ '1').CNFLCTF
.MODOPTF ANOP
         AIF  ('&CNTINQ' EQ '0' ).MODOPTG
         AIF  ('&CNTINQ' GT '1' ).CNFLCTG
&LGONMS1 SETB  0
&DEVCHR1 SETB  0
&TERMS1  SETB  0
&APSTAT1 SETB  0
&COUNTS1 SETB  0
&RNNAME1 SETB  0
&CIDXLT1 SETB  0
&TOPLGN1 SETB  0
&BSCID1  SETB  0
&DISPLY1 SETB  0
&SPARM1  SETB  0
&MSK3CTR SETA  &MSK3CTR+1
&MSK4CTR SETA  &MSK4CTR+1
.MODOPTG ANOP
.* *************** VTL ADDITIONS ****************
         AIF  ('&KEEP' EQ '1' AND '&TRUNC' EQ '1').CNFLCTI
         AIF  ('&KEEP' EQ '1' AND '&NIBTK' EQ '1').CNFLCTI
         AIF  ('&TRUNC' EQ '1' AND '&NIBTK' EQ '1').CNFLCTI
.MODOPTI ANOP
         AIF  ('&NFMHDR' EQ '1' AND '&FMHDR' EQ '1').CNFLCTK
.MODOPTK ANOP
.* ************ END VTL ADDITIONS ***************
         AGO   .CKDONE
.CNFLCT2 ANOP
&OPTERR  SETA  &OPTERR+1
   MNOTE 0,'PARAMETERS SPEC AND ANY CONFLICT BOTH DISREGARDED'
         AGO   .MODOPT3
.CNFLCT3 ANOP
&OPTERR  SETA  &OPTERR+1
   MNOTE 0,'PARAMETERS STOP AND-OR START AND-OR QUIESCE'
   MNOTE 0,'        CONFLICT, ALL DISREGARDED     '
         AGO   .MODOPT3
.CNFLCT4 ANOP
&OPTERR  SETA  &OPTERR+1