.* MVS 3.8J PUBLIC DOMAIN
         MACRO
&NAME    LOCATE &LIST
         AIF   (T'&LIST EQ 'O').E1
&NAME    IHBINNRA &LIST                     LOAD REG 1
         SVC   26                                LINK TO SERVICE ROUT.
         MEXIT
.E1      IHBERMAC 34                    LIST ADDR MISSING
         MEND

