.* MVS 3.8J PUBLIC DOMAIN
         MACRO
&NAME    SCRATCH &LIST,&DUMMY=
         AIF   (T'&LIST EQ 'O').E1
&NAME    IHBINNRA &LIST                     LOAD REG 1
         SVC   29                                ISSUE SCRATCH SVC
         MEXIT
.E1      IHBERMAC 34                    LIST ADDR MISSING
         MEND

