.* MVS 3.8J PUBLIC DOMAIN
         MACRO
&NAME    SPOST &OPERAND
         AIF   ('&OPERAND' NE '').MNOTE
         L     1,CVTPTR(0,0)         GET ADDR OF CVT           @YM02296
         L     1,CVTSPOST-CVTMAP(,1) GET ADDR OF PURGEDQ PARM LIST
         PURGEDQ ,MF=(E,(1))       ISSUE PURGEDQ TO POST RMTR
         MEXIT
.MNOTE   ANOP
         IHBERMAC 1001,SPOST,&OPERAND  INVALID SPOST OPERAND
         MEXIT
         MEND

