         MACRO
&NAME    SYSTRACE &TRACE_OPTIONS
.*
.* AUTHOR. DON HIGGINS
.* DATE.   05/07/11
.* REMARKS. SET EZ390 TRACE OPTIONS FROM STRING
.*          TERMINATED BY SPACE.  THE EXECUTION TIME
.*          OPTIONS INCLUDE:
.*            1. NULL STRING TURNS ALL TRACE OPTIONS OFF
.*            2. E - INSTRUCTION TRACE ON TRE
.*            3. G - MEMORY GETMAIN/FREEMAIN
.*            4. Q - QVSAM I/O
.*            5. T - TCPIO I/O
.*            6. V - VSAM  I/O
&TEXT    SETC '&TRACE_OPTIONS'(2,K'&TRACE_OPTIONS-2)
&NAME    LA   1,=C'&TEXT '
         SVC  X'AC' SET EZ390 TRACE OPTIONS FROM STRING
         MEND