//MACLIB EXEC PGM=IEBUPDTE,PARM=NEW
//SYSUT1   DD  DUMMY
//SYSUT2   DD  DSN=<USERID.STRUCT.MACLIB>,DISP=(NEW,CATLG), ......
//SYSPRINT DD  SYSOUT=*
//SYSIN  DD    DATA
./ ADD NAME=$MGBLDEF                                                    00050000
.*   Copyright (C) <2021>  Daniel H. Snyder
.*   Structured Programming Macros for the IBM High Level Assembler
.*   Daniel.H.Snyder@protonmail.com
.*
.* This program is free software: you can redistribute it and/or modify
.* it under the terms of the GNU General Public License as published by
.* the Free Software Foundation, either version 3 of the License, or
.* any later version.
.*
.* This program is distributed in the hope that it will be useful,
.* but WITHOUT ANY WARRANTY; without even the implied warranty of
.* MERCHANTABILITY or FITNESS FOR A PARTICULAR PURPOSE.  See the
.* GNU General Public License for more details.
.*
.* You should have received a copy of the GNU General Public License
.* along with this program. See <https://www.gnu.org/licenses/>.
.*
         GBLA  &$MLVL,&$MBLATH,&$MBL2,&$Y$NDX,&$MPTR
         GBLC  &$MTNAME(255),&$MFNAME(255),&$MCVERB(255),&$MEQ1(255)
         GBLC  &$MEQ2(255),&$EIUSED(255),&$BT,&$BF,&$MNAME
         GBLC  &$ELSETAG(255),&$CONJ(255),&$MFINI(255)
         GBLC  &$MLNAME(255),&$MSNAME(255),&$MENAME(255),&$ERROR
         GBLC  &$ERRSW
./ ADD NAME=DO                                                          00090000
.*   Copyright (C) <2021>  Daniel H. Snyder
.*   Structured Programming Macros for the IBM High Level Assembler
.*   Daniel.H.Snyder@protonmail.com
.*
.* This program is free software: you can redistribute it and/or modify
.* it under the terms of the GNU General Public License as published by
.* the Free Software Foundation, either version 3 of the License, or
.* any later version.
.*
.* This program is distributed in the hope that it will be useful,
.* but WITHOUT ANY WARRANTY; without even the implied warranty of
.* MERCHANTABILITY or FITNESS FOR A PARTICULAR PURPOSE.  See the
.* GNU General Public License for more details.
.*
.* You should have received a copy of the GNU General Public License
.* along with this program. See <https://www.gnu.org/licenses/>.
.*
         MACRO
&NAME    DO    &WHILE=,&UNTIL=,&TEST=BEFORE
         COPY  $MGBLDEF
         LCLA  &I,&J
         LCLC  &X,&Y,&LCLTEST
&$MLVL   SETA  &$MLVL+1 FOR HOUSEKEEPING
&$Y$NDX  SETA  &$Y$NDX+1
&$MLNAME(&$MLVL) SETC '$MDL&$Y$NDX'
         AIF   ('&NAME' EQ '').SKIP010
&$MLNAME(&$MLVL) SETC '&NAME'
.SKIP010 ANOP
&$MENAME(&$MLVL) SETC '$MDE&$Y$NDX'
&$MSNAME(&$MLVL) SETC '$MDS&$Y$NDX'
&LCLTEST SETC  'AFTER'              FIRST ASSUMPTION
         AIF   ('&TEST' EQ 'AFTER').NEXT030 WAS IT RIGHT?
&LCLTEST SETC  'BEFORE'             NO - MUST BE BEFORE
         AIF   ('&TEST' EQ 'BEFORE').NEXT030 WAS IT BEFORE?
         MNOTE 4,'INVALID VALUE "&TEST" SPECIFIED FOR "TEST=" PARM'
         MNOTE '"BEFORE" IS ASSUMED'
.NEXT030 AIF   ('&TEST' NE 'AFTER').NEXT040 SPECIAL BRANCH FOR "AFTER"
         B     &$MENAME(&$MLVL) EXEC LOOP AT LEAST ONCE
.NEXT040 AIF   ('&WHILE' NE '').TEST050 GO IF WHILE PARM CODED
         AIF   ('&UNTIL' EQ '').ERR080 GO IF NEITHER PARM IS CODED
&Y       SETC  '&UNTIL'
         AIF   ('&UNTIL'(1,2) NE '((').ERR070   MUST BE '(('
         AGO   .UNTIL130            PARM MUST BE UNTIL
.TEST050 AIF   ('&UNTIL' NE '').ERR090 CAN'T HAVE BOTH
&Y       SETC  '&WHILE'
         AIF   ('&WHILE'(1,2) NE '((').ERR070   MUST BE '(('
         AGO   .WHILE100        "WHILE" IT IS
.ERR070  MNOTE 12,'CONDITIONAL PHRASE MUST BEGIN WITL "(("'
         MNOTE 'PHRASE IS "&Y"'
         MNOTE 'MACRO EXPANSION CANCELLED'
         MEXIT
.ERR080  MNOTE 12,'EITHER "WHILE" OR "UNTIL" MUST BE SPECIFIED'
         MNOTE 'MACRO EXPANSION CANCELLED'
         MEXIT
.ERR090  MNOTE 12,'"WHILE" AND "UNTIL" MUST NOT BOTH BE SPECIFIED'
         MNOTE 'MACRO EXPANSION CANCELLED'
         MEXIT
.WHILE100 ANOP    *=*=*    &WHILE OPTION WAS SPECIFIED  *=*=*
&X       SETC  '&$MLNAME(&$MLVL)'
&$MLVL   SETA  &$MLVL-1 FAKE OUT "IF"
&X       IF2    &WHILE(1),&WHILE(2),&WHILE(3),&WHILE(4),&WHILE(5),     C
               &WHILE(6),&WHILE(7),&WHILE(8),&WHILE(9),&WHILE(10),     C
               &WHILE(11),&WHILE(12),&WHILE(13),&WHILE(14),&WHILE(15), C
               &WHILE(16),&WHILE(17),&WHILE(18),&WHILE(19),&WHILE(20), C
               &WHILE(21)
&$MLVL   SETA  &$MLVL+1
         AIF   ('&$MFNAME(&$MLVL)' NE '').WHILE110
&$Y$NDX  SETA  &$Y$NDX+1
&$MFNAME(&$MLVL) SETC '$FINI&$Y$NDX'
.WHILE110 ANOP
         J&$BF &$MFNAME(&$MLVL)
         AIF   ('&$MTNAME(&$MLVL)' EQ '').CLEAN170
&Y       SETC  '&$MTNAME(&$MLVL)'
&Y       DC    0H'0'
&$MTNAME(&$MLVL) SETC ''
         AGO   .CLEAN170
.UNTIL130 ANOP   *=*=*    &UNTIL OPTION WAS SPECIFIED  *=*=*
&X       SETC  '&$MLNAME(&$MLVL)'
&$MLVL   SETA  &$MLVL-1 FAKE OUT "IF"
&X       IF2   &UNTIL(1),&UNTIL(2),&UNTIL(3),&UNTIL(4),&UNTIL(5),      C
               &UNTIL(6),&UNTIL(7),&UNTIL(8),&UNTIL(9),&UNTIL(10),     C
               &UNTIL(11),&UNTIL(12),&UNTIL(13),&UNTIL(14),&UNTIL(15), C
               &UNTIL(16),&UNTIL(17),&UNTIL(18),&UNTIL(19),&UNTIL(20), C
               &UNTIL(21)
&$MLVL   SETA  &$MLVL+1
         AIF   ('&$MTNAME(&$MLVL)' NE '').UNTIL140
&$Y$NDX  SETA  &$Y$NDX+1
&$MTNAME(&$MLVL) SETC '$FINI&$Y$NDX'
.UNTIL140 ANOP
         B&$BT &$MTNAME(&$MLVL)
         AIF   ('&$MFNAME(&$MLVL)' EQ '').CLEAN170
&Y       SETC  '&$MFNAME(&$MLVL)'
&Y       DC    0H'0'
&$MFNAME(&$MLVL) SETC ''
.CLEAN170 AIF   ('&LCLTEST' NE 'AFTER').MEND180
&X       SETC  '&$MENAME(&$MLVL)'
&X       DC    0H'0'
.MEND180 ANOP
&$MCVERB(&$MLVL) SETC  'DO'
         MEND
./ ADD NAME=ELSE                                                        00130000
.*   Copyright (C) <2021>  Daniel H. Snyder
.*   Structured Programming Macros for the IBM High Level Assembler
.*   Daniel.H.Snyder@protonmail.com
.*
.* This program is free software: you can redistribute it and/or modify
.* it under the terms of the GNU General Public License as published by
.* the Free Software Foundation, either version 3 of the License, or
.* any later version.
.*
.* This program is distributed in the hope that it will be useful,
.* but WITHOUT ANY WARRANTY; without even the implied warranty of
.* MERCHANTABILITY or FITNESS FOR A PARTICULAR PURPOSE.  See the
.* GNU General Public License for more details.
.*
.* You should have received a copy of the GNU General Public License
.* along with this program. See <https://www.gnu.org/licenses/>.
.*
         MACRO
&NAME    ELSE  ,                   END OF POSITIVE TEST, START OF
         COPY  $MGBLDEF            . NEGATIVE
         LCLC  &X,&Y                  SET TO 'IF-FAILED' TAG
         AIF   (&$MLVL GT 0).OK20
         MNOTE 8,'"ELSE" INVALID OUTSIDE OF AN "IF" GROUP'
         MNOTE ' - MACRO GENERATION TERMINATED'
         MEXIT
.OK20    AIF   ('&$MCVERB(&$MLVL)' EQ 'IF').OK30
         AIF   ('&$MCVERB(&$MLVL)' EQ 'ELSEIF').OK30
         MNOTE 8,'"ELSE" INVALID FOLLOWING "&$MCVERB(&$MLVL)"'
         MNOTE ' - MACRO GENERATION TERMINATED'
         MEXIT
.OK30    AIF   ('&$MFINI(&$MLVL)' NE '').OK40
&$Y$NDX  SETA  &$Y$NDX+1
&$MFINI(&$MLVL) SETC '$FINI&$Y$NDX'
.OK40    J     &$MFINI(&$MLVL)
&X       SETC  '&$MFNAME(&$MLVL)'
&X       DC    0H'0'
&$MFNAME(&$MLVL) SETC ''
&$MCVERB(&$MLVL) SETC 'ELSE'
         MEND
./ ADD NAME=ELSEIF                                                      00170000
.*   Copyright (C) <2021>  Daniel H. Snyder
.*   Structured Programming Macros for the IBM High Level Assembler
.*   Daniel.H.Snyder@protonmail.com
.*
.* This program is free software: you can redistribute it and/or modify
.* it under the terms of the GNU General Public License as published by
.* the Free Software Foundation, either version 3 of the License, or
.* any later version.
.*
.* This program is distributed in the hope that it will be useful,
.* but WITHOUT ANY WARRANTY; without even the implied warranty of
.* MERCHANTABILITY or FITNESS FOR A PARTICULAR PURPOSE.  See the
.* GNU General Public License for more details.
.*
.* You should have received a copy of the GNU General Public License
.* along with this program. See <https://www.gnu.org/licenses/>.
.*
         MACRO
&NAME    ELSEIF &EXP
         COPY  $MGBLDEF
         LCLC  &X,&Y
         AIF   (&$MLVL GT 0).OK20
         MNOTE 8,'"ELSEIF" INVALID OUTSIDE OF AN "IF" GROUP'
         MNOTE ' - MACRO GENERATION TERMINATED'
         MEXIT
.OK20    ANOP
         AIF   ('&$MCVERB(&$MLVL)' EQ 'IF').OK30
         AIF   ('&$MCVERB(&$MLVL)' EQ 'ELSEIF').OK30
         MNOTE 8,'"ELSEIF" INVALID FOLLOWING "&$MCVERB(&$MLVL)"'
         MNOTE ' - MACRO GENERATION TERMINATED'
         MEXIT
.OK30    AIF   ('&$MFINI(&$MLVL)' NE '').OK40
&$Y$NDX  SETA  &$Y$NDX+1
&$MFINI(&$MLVL) SETC '$FINI&$Y$NDX'
.OK40    J     &$MFINI(&$MLVL)
&X       SETC  '&$MFNAME(&$MLVL)'
&$MFNAME(&$MLVL) SETC ''
&$MLVL   SETA  &$MLVL-1          SO 'IF' CAN BUMP IT UP AGAIN
&X       IF    &SYSLIST(1),&SYSLIST(2),&SYSLIST(3),&SYSLIST(4),        C
               &SYSLIST(5),&SYSLIST(6),&SYSLIST(7),&SYSLIST(8),        C
               &SYSLIST(9),&SYSLIST(10),&SYSLIST(11),&SYSLIST(12),     C
               &SYSLIST(13),&SYSLIST(14),&SYSLIST(15),&SYSLIST(16),    C
               &SYSLIST(17),&SYSLIST(18),&SYSLIST(19),&SYSLIST(20),    C
               &SYSLIST(21),&SYSLIST(22),&SYSLIST(23),&SYSLIST(24),    C
               &SYSLIST(25),&SYSLIST(26),&SYSLIST(27),&SYSLIST(28),    C
               &SYSLIST(29),&SYSLIST(30),&SYSLIST(31),&SYSLIST(32)
&$MCVERB(&$MLVL) SETC 'ELSEIF'
         MEND
./ ADD NAME=ENDDO                                                       00210000
.*   Copyright (C) <2021>  Daniel H. Snyder                             00010000
.*   Structured Programming Macros for the IBM High Level Assembler     00020000
.*   Daniel.H.Snyder@protonmail.com                                     00030000
.*                                                                      00040000
.* This program is free software: you can redistribute it and/or modify 00050000
.* it under the terms of the GNU General Public License as published by 00060000
.* the Free Software Foundation, either version 3 of the License, or    00070000
.* any later version.                                                   00080000
.*                                                                      00090000
.* This program is distributed in the hope that it will be useful,      00100000
.* but WITHOUT ANY WARRANTY; without even the implied warranty of       00110000
.* MERCHANTABILITY or FITNESS FOR A PARTICULAR PURPOSE.  See the        00120000
.* GNU General Public License for more details.                         00130000
.*                                                                      00140000
.* You should have received a copy of the GNU General Public License    00150000
.* along with this program. See <https://www.gnu.org/licenses/>.        00160000
.*                                                                      00170000
         MACRO                                                          00180000
&NAME    ENDDO , STUB FOR "ENDIF"                                       00190000
         COPY  $MGBLDEF                                                 00191000
         AIF   (&$MLVL GT 0).OK002                                      00200000
         MNOTE 8,'"ENDDO" INVALID OUTSIDE OF A "DO" GROUP'              00210000
         MNOTE ' - MACRO GENERATION TERMINATED'                         00220000
         MEXIT                                                          00230000
.OK002   ANOP                                                           00240000
         ENDIF ,                                                        00250000
         MEND                                                           00260000
./ ADD NAME=ENDIF                                                       00230000
.*   Copyright (C) <2021>  Daniel H. Snyder
.*   Structured Programming Macros for the IBM High Level Assembler
.*   Daniel.H.Snyder@protonmail.com
.*
.* This program is free software: you can redistribute it and/or modify
.* it under the terms of the GNU General Public License as published by
.* the Free Software Foundation, either version 3 of the License, or
.* any later version.
.*
.* This program is distributed in the hope that it will be useful,
.* but WITHOUT ANY WARRANTY; without even the implied warranty of
.* MERCHANTABILITY or FITNESS FOR A PARTICULAR PURPOSE.  See the
.* GNU General Public License for more details.
.*
.* You should have received a copy of the GNU General Public License
.* along with this program. See <https://www.gnu.org/licenses/>.
.*
         MACRO
&NAME    ENDIF &ELSE,&DOGROUP=
         COPY  $MGBLDEF
         LCLC  &X,&Y
         AIF   (&$MLVL GT 0).OK002
         MNOTE 8,'"ENDIF" INVALID OUTSIDE OF AN "IF" GROUP'
         MNOTE ' - MACRO GENERATION TERMINATED'
         MEXIT
.OK002   ANOP
&X       SETC  '&$MCVERB(&$MLVL)'
         AIF   ('&X' EQ 'DO').CONT005
         AIF   ('&X' EQ 'IF').CONT010
         AIF   ('&X' EQ 'ELSE').CONT010
         AIF   ('&X' EQ 'ELSEIF').CONT010
         MNOTE 4,'"ENDIF" USED TO TERMINATE "&X" GROUP'
         AGO   .CONT010
.CONT005 J     &$MLNAME(&$MLVL) GO BACK AND TRY AGAIN
.CONT010 AIF   ('&$MFNAME(&$MLVL)' EQ '').NEXT015
&X       SETC  '&$MFNAME(&$MLVL)'
&X       DC    0H'0'
&$MFNAME(&$MLVL) SETC ''
.NEXT015 AIF   ('&$MTNAME(&$MLVL)' EQ '').NEXT020
&X       SETC  '&$MTNAME(&$MLVL)'
&X       DC    0H'0'
&$MTNAME(&$MLVL) SETC ''
.NEXT020 AIF   ('&$MFINI(&$MLVL)' EQ '').LOOP027
&X       SETC  '&$MFINI(&$MLVL)'
&X       DC    0H'0'
&$MFINI(&$MLVL) SETC ''
.LOOP027 AIF   (&$MPTR EQ 0).MEND030
&X       SETC  '&$MEQ1(&$MPTR)'
&Y       SETC  '&$MEQ2(&$MPTR)'
         AIF   ('&X' EQ '').SKIP028
&X       EQU   &Y
&$MEQ1(&$MPTR) SETC ''
.SKIP028 ANOP
&$MEQ2(&$MPTR) SETC ''
&$MPTR   SETA  &$MPTR-1
         AGO   .LOOP027
.MEND030 ANOP
&$MCVERB(&$MLVL) SETC 'ASTRONOMY'
&$MLVL   SETA  &$MLVL-1
         MEND
./ ADD NAME=IF                                                          00270000
.*   Copyright (C) <2021>  Daniel H. Snyder                             00010000
.*   Structured Programming Macros for the IBM High Level Assembler     00020000
.*   Daniel.H.Snyder@protonmail.com                                     00030000
.*                                                                      00040000
.* This program is free software: you can redistribute it and/or modify 00050000
.* it under the terms of the GNU General Public License as published by 00060000
.* the Free Software Foundation, either version 3 of the License, or    00070000
.* any later version.                                                   00080000
.*                                                                      00090000
.* This program is distributed in the hope that it will be useful,      00100000
.* but WITHOUT ANY WARRANTY; without even the implied warranty of       00110000
.* MERCHANTABILITY or FITNESS FOR A PARTICULAR PURPOSE.  See the        00120000
.* GNU General Public License for more details.                         00130000
.*                                                                      00140000
.* You should have received a copy of the GNU General Public License    00150000
.* along with this program. See <https://www.gnu.org/licenses/>.        00160000
.*                                                                      00170000
         MACRO                                                          00180000
&NAME    IF    &EXP                MULTIPLE OPERANDS VIA &SYSLIST       00190000
         COPY  IFCOPY                                                   00200000
.*                                                                      00210000
.* =*=*=*=*=*=*=*=*=*=*=*=*=*=*=*=*=*=*=*=*=*=*=*=*=*=*=*=*=*=*=*=*=*=* 00220000
.*                                                                    * 00230000
.* PREPARE FOR UPCOMING "ELSEIF", "ELSE", AND "ENDIF" STATEMENTS.     * 00240000
.*                                                                    * 00250000
.* =*=*=*=*=*=*=*=*=*=*=*=*=*=*=*=*=*=*=*=*=*=*=*=*=*=*=*=*=*=*=*=*=*=* 00260000
.*                                                                      00270000
.FINISH260 AIF   ('&$ERRSW' EQ 'Y').MEND290                             00280000
         AIF ('&$MFNAME(&$MLVL)' NE '').FIN270                          00300000
&$Y$NDX  SETA  &$Y$NDX+1                                                00310000
&$MFNAME(&$MLVL) SETC '$NEXT&$Y$NDX'                                    00320000
.FIN270  ANOP                                                           00330000
         J&$BF &$MFNAME(&$MLVL)    BRANCH IF CC INDICATES FAIL          00350002
         AIF   ('&$MTNAME(&$MLVL)' EQ '').MEND290                       00360000
&Y       SETC  '&$MTNAME(&$MLVL)'                                       00370000
&Y       DC    0H'0'               END RESULT WAS PASS - DO THE EXECUTE 00380000
&$MTNAME(&$MLVL) SETC ''                                                00390000
.MEND290 ANOP                                                           00400000
&$MCVERB(&$MLVL) SETC 'IF'                                              00410000
         MEND                                                           00420000
./ ADD NAME=IFCOPY                                                      00310000
.*   Copyright (C) <2021>  Daniel H. Snyder                             00010002
.*   Structured Programming Macros for the IBM High Level Assembler     00020001
.*   Daniel.H.Snyder@protonmail.com                                     00030001
.*                                                                      00040001
.* This program is free software: you can redistribute it and/or modify 00050001
.* it under the terms of the GNU General Public License as published by 00060001
.* the Free Software Foundation, either version 3 of the License, or    00070001
.* any later version.                                                   00080001
.*                                                                      00090001
.* This program is distributed in the hope that it will be useful,      00100001
.* but WITHOUT ANY WARRANTY; without even the implied warranty of       00110001
.* MERCHANTABILITY or FITNESS FOR A PARTICULAR PURPOSE.  See the        00120001
.* GNU General Public License for more details.                         00130001
.*                                                                      00140001
.* You should have received a copy of the GNU General Public License    00150001
.* along with this program. See <https://www.gnu.org/licenses/>.        00160001
.*                                                                      00170001
         COPY  $MGBLDEF            BRING IN GLOBAL SYMBOLS              00180001
         LCLA  &I,&J,&K                                                 00190001
         LCLC  &LENGTH1,&LENGTH2,&LENGTH3 ANALYZE &$BT                  00200001
         LCLC  &X,&Y,&OP,&OPND1,&OPND2,&OPND3,&C,&NC,&TSTCOND           00210001
         LCLC  &OPND4,&OPND5,&OPND6                                     00220001
.*                                                                      00230001
.* =*=*=*=*=*=*=*=*=*=*=*=*=*=*=*=*=*=*=*=*=*=*=*=*=*=*=*=*=*=*=*=*=*=* 00240001
.*                                                                    * 00250001
.* IMPORTANT SET SYMBOL NAMES                                         * 00260001
.*                                                                    * 00270001
.* &$MFNAME WILL CONTAIN THE UNIQUE TAG FOR THE CONDITION WHERE A     * 00280001
.*          BRANCH ON FALSE WILL OCCUR.                               * 00290001
.* &$MTNAME WILL CONTAIN THE UNIQUE TAG FOR THE CONDITION WHERE A     * 00300001
.*          BRANCH ON TRUE WILL OCCUR.                                * 00310001
.* &$BT     IS THE EXTENDED CONDITION CODE MNEMONIC SPECIFIED IN THE  * 00320001
.*          MACRO CALL STATING THE CONDITION IN WHICH THE PREMISE OF  * 00330001
.*          THE LOGIC PHRASE IS TRUE.                                 * 00340001
.* &$BF     IS THE EXTENDED CONDITION CODE MNEMONIC CALCULATED WITHIN * 00350001
.*          THE MACRO GENERATION STATING THE CONDITION IN WHICH THE   * 00360001
.*          PREMISE OF THE LOGIC PHRASE IS FALSE.                     * 00370001
.*                                                                    * 00380001
.* =*=*=*=*=*=*=*=*=*=*=*=*=*=*=*=*=*=*=*=*=*=*=*=*=*=*=*=*=*=*=*=*=*=* 00390001
.*                                                                      00400001
.* =*=*=*=*=*=*=*=*=*=*=*=*=*=*=*=*=*=*=*=*=*=*=*=*=*=*=*=*=*=*=*=*=*=* 00410001
.*                                                                    * 00420001
.* INITIALIZATION.                                                    * 00430001
.*                                                                    * 00440001
.* =*=*=*=*=*=*=*=*=*=*=*=*=*=*=*=*=*=*=*=*=*=*=*=*=*=*=*=*=*=*=*=*=*=* 00450001
.*                                                                      00460001
&$MLVL   SETA  &$MLVL+1            INCREASE RECURSION/NESTING COUNT     00470001
&I       SETA  1                   SET TO FIRST POSITIONAL              00480001
&$MNAME  SETC  '&NAME'             TAG FOR FIRST TEST                   00490001
.*                                                                      00500001
.* =*=*=*=*=*=*=*=*=*=*=*=*=*=*=*=*=*=*=*=*=*=*=*=*=*=*=*=*=*=*=*=*=*=* 00510001
.*                                                                    * 00520001
.* PROCESS THE LOGIC PACK FOR OP-CODE, OPERAND(S), AND THE CONDITION  * 00530001
.* UNDER WHICH THE THE CODE FOLLOWING THE "IF" IS TO BE EXECUTED.     * 00540001
.*                                                                    * 00550001
.* =*=*=*=*=*=*=*=*=*=*=*=*=*=*=*=*=*=*=*=*=*=*=*=*=*=*=*=*=*=*=*=*=*=* 00560001
.*                                                                      00570001
.LOOP020 ANOP  START THE PROCESS (MAYBE) AGAIN                          00580001
         AIF   ('&SYSLIST(&I)' EQ '').FINISH260  GO TO FINISH IF DONE   00600001
&$ERRSW  SETC  'N'                 NO ERROR EXISTS AT THIS POINT        00610001
         AIF   ('&SYSLIST(&I)'(1,1) NE '(').FATAL180   MUST BE '('      00620001
         AIF   ('&SYSLIST(&I)'(2,1) EQ '(').RECURS120 GO IF NESTED      00630001
&OP      SETC  '&SYSLIST(&I,1)'    OP-CODE IS ALWAYS 1ST SUB-OPERAND    00640001
&J       SETA  (N'&SYSLIST(&I))    NUMBER OF SUBPARAMETERS FOR THIS ONE 00650001
         AIF   (&J NE 2).TEST030     GO TEST FOR 1-OPERAND INST         00660001
&$MNAME  &OP   ,                   ZERO OPERAND INSTRUCTION             00670002
&$BT     SETC  '&SYSLIST(&I,2)'    CONDITION IS ALWAYS LAST SUB-OPERAND 00680001
         AGO   .FINGEN070             GO SET UP BRANCH INST             00690001
.TEST030 ANOP  ,                                                        00700001
&OPND1   SETC  '&SYSLIST(&I,2)'    FIRST (ONLY?) OPERAND                00710001
         AIF   (&J NE 3).TEST040     GO TEST FOR 2-OPERAND INST         00720001
&$MNAME  &OP   &OPND1              ONE OPERAND                          00730002
&$BT     SETC  '&SYSLIST(&I,3)'    CONDITION IS ALWAYS LAST SUB-OPERAND 00740001
         AGO   .FINGEN070             GO SET UP BRANCH INST             00750001
.TEST040 ANOP  ,                                                        00760001
&OPND2   SETC  '&SYSLIST(&I,3)'    SECOND OPERAND                       00770001
         AIF   (&J NE 4).TEST050     GO TEST FOR 3-OPERAND INST         00780001
&$MNAME  &OP   &OPND1,&OPND2       TWO OPERANDS                         00790002
&$BT     SETC  '&SYSLIST(&I,4)'    CONDITION IS ALWAYS LAST SUB-OPERAND 00800001
         AGO   .FINGEN070             GO SET UP BRANCH INST             00810001
.TEST050 ANOP  ,                                                        00820001
&OPND3   SETC  '&SYSLIST(&I,4)'    THIRD OPERAND                        00830001
         AIF   (&J NE 5).TEST052                                        00840001
&$MNAME  &OP   &OPND1,&OPND2,&OPND3 THREE OPERANDS                      00850002
&$BT     SETC  '&SYSLIST(&I,5)'   CONDITION IS ALWAYS LAST SUB-OPERAND  00860001
         AGO   .FINGEN070            GO SET UP BRANCH INST              00870001
.TEST052 ANOP                                                           00880001
&OPND4   SETC  '&SYSLIST(&I,5)'    FOURTH OPERAND                       00890001
         AIF   (&J NE 6).TEST054                                        00900001
&$MNAME  &OP   &OPND1,&OPND2,&OPND3,&OPND4  FOUR OPERANDS               00910002
&$BT     SETC  '&SYSLIST(&I,6)'   CONDITION IS ALWAYS LAST SUB-OPERAND  00920001
         AGO   .FINGEN070            GO SET UP BRANCH INST              00930001
.TEST054 ANOP                                                           00940001
&OPND5   SETC  '&SYSLIST(&I,6)'    FIFTH OPERAND                        00950001
         AIF   (&J NE 7).TEST056                                        00960001
&$MNAME  &OP   &OPND1,&OPND2,&OPND3,&OPND4,&OPND5 FIVE OPERANDS         00970002
&$BT     SETC  '&SYSLIST(&I,7)'   CONDITION IS ALWAYS LAST SUB-OPERAND  00980001
         AGO   .FINGEN070            GO SET UP BRANCH INST              00990001
.TEST056 ANOP                                                           01000001
&OPND6   SETC  '&SYSLIST(&I,7)'    SIXTH OPERAND                        01010001
         AIF   (&J NE 8).ERROR060                                       01020001
&$MNAME  &OP   &OPND1,&OPND2,&OPND3,&OPND4,&OPND5,&OPND6  SIX OPERANDS  01030002
&$BT     SETC  '&SYSLIST(&I,8)'   CONDITION IS ALWAYS LAST SUB-OPERAND  01040001
         AGO   .FINGEN070            GO SET UP B                        01050001
.ERROR060 ANOP ,                                                        01060001
&K       SETA  ((&I+3)/2)          GET SEQUENCE # OF PHRASE IN ERROR    01070001
         MNOTE 08,'INVALID NUMBER OF PARMS (&J) IN CONDITIONAL PHRASE #*01080001
               &K &SYSLIST(&I); IT WILL BE DELETED FROM THE MACRO EXPAN*01090001
               SION'                                                    01100001
&I       SETA  &I+2                INCREMENT                            01110001
         AGO   .LOOP020             BACK FOR MORE                       01120001
.*                                                                      01130001
.* =*=*=*=*=*=*=*=*=*=*=*=*=*=*=*=*=*=*=*=*=*=*=*=*=*=*=*=*=*=*=*=*=*=* 01140001
.*                                                                    * 01150001
.* THE TEST INSTRUCTION THAT SETS THE CONDITION CODE HAS BEEN         * 01160001
.* GENERATED; NOW SET UP FOR CREATING THE BRANCH-ON-CONDITION.        * 01170001
.*                                                                    * 01180001
.* =*=*=*=*=*=*=*=*=*=*=*=*=*=*=*=*=*=*=*=*=*=*=*=*=*=*=*=*=*=*=*=*=*=* 01190001
.*                                                                      01200001
.FINGEN070 ANOP                                                         01210001
&$MNAME  SETC  ''                  PREVENT DUPLICATE TAG                01230001
.*                                                                      01240001
.* =*=*=*=*=*=*=*=*=*=*=*=*=*=*=*=*=*=*=*=*=*=*=*=*=*=*=*=*=*=*=*=*=*=* 01250001
.*                                                                    * 01260001
.* &$BT IS THE VALUE OF THE CONDITION SPECIFIED IN THE MACRO CALL.    * 01270001
.* &$BT IS THE MNEMONIC PORTION OF THE BRANCH INSTRUCTION THAT WILL   * 01280001
.* GENERATE A BRANCH CONDITION THAT WILL BRANCH IF THE CONDITION      * 01290001
.* BEING TESTED IS TRUE. IF &$BT HAS THE VALUE OF "NE", THAT MEANS    * 01300001
.* THAT THE BODY OF THE IF-GROUP WILL BE EXECUTED IF THE RESULT OF    * 01310001
.* PREVIOUSLY GENERATED INSTRUCTION IS "NE", AND THE INSTRUCTION      * 01320001
.* GENERATED WILL NORMALLY BE "JE" TO BRANCH AROUND THE EXECUTABLE    * 01330001
.* BODY OF THE IF-GROUP. THE ONLY EXCEPTION IS IF THE LOGIC AROSE     * 01340001
.* FROM A "DO UNTIL=..." MACRO CALL, WHERE THE BRANCH AROUND THE      * 01350001
.* EXECUTABLE BODY OF THE DO-GROUP WOULD BE "JNE".                    * 01360001
.*                                                                    * 01370001
.* &$BF (BRANCH ON FALSE) WILL HAVE THE OPPOSITE VALUE TO &$BT; IN    * 01380001
.* THIS INSTANCE, IT WOULD BE "E".                                    * 01390001
.*                                                                    * 01400001
.* =*=*=*=*=*=*=*=*=*=*=*=*=*=*=*=*=*=*=*=*=*=*=*=*=*=*=*=*=*=*=*=*=*=* 01410001
.*                                                                      01420001
&LENGTH1 SETC  '&$BT'(1,1)        1ST CHAR OF USER-SPECIFIED CONDITION  01430001
&LENGTH2 SETC  '&$BT'(1,2)        FIRST TWO CHARACTERS                  01440001
&LENGTH3 SETC  '&$BT'             ALL CHARACTERS                        01450001
         AIF ('&LENGTH2' NE '&LENGTH3').ERR100 LENGTH OF COND PARM > 2? 01460001
         AIF   ('&LENGTH1' EQ '&LENGTH2').ONE080 ONE CHAR CONDITION     01470001
         AIF   ('&LENGTH1' NE 'N').ERR100 IF 2 CHAR 1ST MUST BE "N"     01480001
&$BF     SETC  '&LENGTH2'(2,1) &$BT 1ST CHAR IS "N", 2ND IS CONDITION   01490001
&TSTCOND SETC  '&$BF'   FOR VALIDATING CONDITION                        01500001
         AGO   .FIRST090                                                01510001
.ONE080  ANOP                                                           01520001
&$BF     SETC  'N&LENGTH1' 1 CHAR CONDITION; "N" WILL BE 1ST CHAR       01530001
&TSTCOND SETC  '&$BT'   FOR VALIDATING CONDITION                        01540001
.FIRST090 ANOP , MNOTE '$BT "&$BT" $BF "&$BF"'                          01550001
         AIF   ('&TSTCOND' EQ 'E').OK065                                01560001
         AIF   ('&TSTCOND' EQ 'H').OK065                                01570001